*Heading
** Job name: Job-1 Model name: Model-1
** Generated by: Abaqus/CAE 2020
*Preprint, echo=NO, model=NO, history=NO, contact=NO
**
** PARTS
**
*Part, name=Part-1
*End Part
**  
**
** ASSEMBLY
**
*Assembly, name=Assembly
**  
*Instance, name=Part-1-1, part=Part-1
*Node
      1,   7.19615221,           3.,  0.200000003
      2,           2.,           0.,  0.200000003
      3,           2.,           0.,           0.
      4,   7.19615221,           3.,           0.
      5,           1.,    1.7320509,  0.200000003
      6,           1.,    1.7320509,           0.
      7,   6.19615269,    4.7320509,           0.
      8,   6.19615269,    4.7320509,  0.200000003
      9,           1.,   -1.7320509,           0.
     10,          -1.,   -1.7320509,           0.
     11,          -2.,           0.,           0.
     12,          -1.,    1.7320509,           0.
     13,           1.,   -1.7320509,  0.200000003
     14,          -1.,   -1.7320509,  0.200000003
     15,          -1.,    1.7320509,  0.200000003
     16,          -2.,           0.,  0.200000003
     17,           1.,   -7.7320509,           0.
     18,          -1.,   -7.7320509,           0.
     19,           1.,   -7.7320509,  0.200000003
     20,          -1.,   -7.7320509,  0.200000003
** ... 1171 like lines cut
*Element, type=C3D8
 1,   90,  419,  981,  413,    1,   37,  391,   60
 2,  419,  420,  982,  981,   37,   38,  392,  391
 3,  420,  421,  983,  982,   38,   39,  393,  392
 4,  421,  422,  984,  983,   39,   40,  394,  393
 5,  422,  423,  985,  984,   40,   41,  395,  394
 6,  423,  424,  986,  985,   41,   42,  396,  395
 7,  424,  425,  987,  986,   42,   43,  397,  396
 8,  425,  426,  988,  987,   43,   44,  398,  397
 9,  426,  427,  989,  988,   44,   45,  399,  398
10,  427,  428,  990,  989,   45,   46,  400,  399
11,  428,  429,  991,  990,   46,   47,  401,  400
12,  429,   96,  416,  991,   47,    2,   48,  401
13,  413,  981,  452,   85,   60,  391,   59,    4
14,  981,  982,  453,  452,  391,  392,   58,   59
15,  982,  983,  454,  453,  392,  393,   57,   58
16,  983,  984,  455,  454,  393,  394,   56,   57
17,  984,  985,  456,  455,  394,  395,   55,   56
18,  985,  986,  457,  456,  395,  396,   54,   55
19,  986,  987,  458,  457,  396,  397,   53,   54
20,  987,  988,  459,  458,  397,  398,   52,   53
** ... 604 like lines cut
*Nset, nset=Set-1, generate
    1,  1191,     1
*Elset, elset=Set-1, generate
   1,  624,    1
*Nset, nset=P1
    1,    2,    3,    4,    5,    6,    7,    8,   37,   38,   39,   40,   41,   42,   43,   44
   45,   46,   47,   48,   49,   50,   51,   52,   53,   54,   55,   56,   57,   58,   59,   60
   61,   62,   63,   64,   65,   66,   67,   68,   69,   70,   71,   72,   73,   74,   75,   76
   77,   78,   79,   80,   81,   82,   83,   84,   85,   86,   87,   88,   89,   90,   91,   92
   93,   94,   95,   96,  391,  392,  393,  394,  395,  396,  397,  398,  399,  400,  401,  402
  403,  404,  405,  406,  407,  408,  409,  410,  411,  412,  413,  414,  415,  416,  417,  418
  419,  420,  421,  422,  423,  424,  425,  426,  427,  428,  429,  430,  431,  432,  433,  434
  435,  436,  437,  438,  439,  440,  441,  442,  443,  444,  445,  446,  447,  448,  449,  450
  451,  452,  453,  454,  455,  456,  457,  458,  459,  460,  461,  462,  463,  464,  465,  466
  467,  468,  469,  470,  471,  472,  473,  474,  475,  476,  477,  478,  479,  480,  481,  482
  483,  484,  981,  982,  983,  984,  985,  986,  987,  988,  989,  990,  991,  992,  993,  994
  995,  996,  997,  998,  999, 1000, 1001, 1002, 1003, 1004, 1005, 1006, 1007, 1008, 1009, 1010
 1011, 1012, 1013
*Elset, elset=P1, generate
  1,  96,   1
*Nset, nset=Set-3
    5,    6,   12,   15,   25,   26,   27,   28,   72,  112,  113,  114,  115,  125,  126,  127
  235,  236,  237,  238,  239,  240,  241,  242,  243,  244,  245,  246,  247,  248,  249,  250
  251,  252,  253,  254,  255,  256,  257,  258,  259,  260,  261,  262,  263,  264,  265,  266
  267,  268,  269,  270,  271,  272,  273,  274,  275,  276,  277,  278,  279,  280,  281,  282
  283,  284,  285,  286,  510,  511,  512,  708,  709,  710,  711,  712,  713,  714,  715,  716
  717,  718,  719,  720,  721,  722,  723,  724,  725,  726,  727,  728,  729,  730,  731,  732
  733,  734,  735,  736,  737,  738,  739,  740,  741,  742,  743,  744,  745,  746,  747,  748
  749,  750,  751,  752,  753,  754,  755,  756,  757,  758,  759,  760,  761,  762,  763,  764
  765,  766,  767,  768,  769,  770,  771,  772,  773,  774,  775,  776,  777,  778,  779,  780
  781,  782,  783,  784,  785,  786,  787,  788,  789,  790,  791,  792,  793,  794,  795,  796
  797,  798, 1093, 1094, 1095, 1096, 1097, 1098, 1099, 1100, 1101, 1102, 1103, 1104, 1105, 1106
 1107, 1108, 1109, 1110, 1111, 1112, 1113, 1114, 1115, 1116, 1117, 1118, 1119, 1120, 1121, 1122
 1123, 1124, 1125
*Elset, elset=Set-3, generate
 337,  432,    1
*Nset, nset=Set-42, generate
    1,  1191,     1
*Elset, elset=Set-42, generate
   1,  624,    1
** Section: Section-1
*Solid Section, elset=Set-42, material=Material-1
,
*End Instance
**  
*Elset, elset=E1_1, instance=Part-1-1
  7,  8,  9, 10, 11, 12, 19, 20, 21, 22, 23, 24, 31, 32, 33, 34
 35, 36, 43, 44, 45, 46, 47, 48, 55, 56, 57, 58, 59, 60, 67, 68
 69, 70, 71, 72, 79, 80, 81, 82, 83, 84, 91, 92, 93, 94, 95, 96
*Elset, elset=E1_2, instance=Part-1-1
  1,  2,  3,  4,  5,  6, 13, 14, 15, 16, 17, 18, 25, 26, 27, 28
 29, 30, 37, 38, 39, 40, 41, 42, 49, 50, 51, 52, 53, 54, 61, 62
 63, 64, 65, 66, 73, 74, 75, 76, 77, 78, 85, 86, 87, 88, 89, 90
*Elset, elset=E2_1, instance=Part-1-1
 337, 338, 339, 340, 341, 342, 343, 344, 345, 346, 347, 348, 349, 350, 351, 352
 353, 354, 355, 356, 357, 358, 359, 360, 385, 386, 387, 388, 389, 390, 391, 392
 393, 394, 395, 396, 397, 398, 399, 400, 401, 402, 403, 404, 405, 406, 407, 408
*Elset, elset=E2_2, instance=Part-1-1
 361, 362, 363, 364, 365, 366, 367, 368, 369, 370, 371, 372, 373, 374, 375, 376
 377, 378, 379, 380, 381, 382, 383, 384, 409, 410, 411, 412, 413, 414, 415, 416
 417, 418, 419, 420, 421, 422, 423, 424, 425, 426, 427, 428, 429, 430, 431, 432
*Elset, elset=E3_1, instance=Part-1-1
 433, 434, 435, 436, 437, 438, 439, 440, 441, 442, 443, 444, 445, 446, 447, 448
 449, 450, 451, 452, 453, 454, 455, 456, 481, 482, 483, 484, 485, 486, 487, 488
 489, 490, 491, 492, 493, 494, 495, 496, 497, 498, 499, 500, 501, 502, 503, 504
*Elset, elset=E3_2, instance=Part-1-1
 457, 458, 459, 460, 461, 462, 463, 464, 465, 466, 467, 468, 469, 470, 471, 472
 473, 474, 475, 476, 477, 478, 479, 480, 505, 506, 507, 508, 509, 510, 511, 512
 513, 514, 515, 516, 517, 518, 519, 520, 521, 522, 523, 524, 525, 526, 527, 528
*Elset, elset=E4_1, instance=Part-1-1
 529, 530, 531, 532, 533, 534, 535, 536, 537, 538, 539, 540, 541, 542, 543, 544
 545, 546, 547, 548, 549, 550, 551, 552, 577, 578, 579, 580, 581, 582, 583, 584
 585, 586, 587, 588, 589, 590, 591, 592, 593, 594, 595, 596, 597, 598, 599, 600
*Elset, elset=E4_2, instance=Part-1-1
 553, 554, 555, 556, 557, 558, 559, 560, 561, 562, 563, 564, 565, 566, 567, 568
 569, 570, 571, 572, 573, 574, 575, 576, 601, 602, 603, 604, 605, 606, 607, 608
 609, 610, 611, 612, 613, 614, 615, 616, 617, 618, 619, 620, 621, 622, 623, 624
*Elset, elset=E5_1, instance=Part-1-1
 145, 146, 147, 148, 149, 150, 151, 152, 153, 154, 155, 156, 157, 158, 159, 160
 161, 162, 163, 164, 165, 166, 167, 168, 193, 194, 195, 196, 197, 198, 199, 200
 201, 202, 203, 204, 205, 206, 207, 208, 209, 210, 211, 212, 213, 214, 215, 216
*Elset, elset=E5_2, instance=Part-1-1
 169, 170, 171, 172, 173, 174, 175, 176, 177, 178, 179, 180, 181, 182, 183, 184
 185, 186, 187, 188, 189, 190, 191, 192, 217, 218, 219, 220, 221, 222, 223, 224
 225, 226, 227, 228, 229, 230, 231, 232, 233, 234, 235, 236, 237, 238, 239, 240
*Elset, elset=E6_1, instance=Part-1-1
 241, 242, 243, 244, 245, 246, 247, 248, 249, 250, 251, 252, 253, 254, 255, 256
 257, 258, 259, 260, 261, 262, 263, 264, 289, 290, 291, 292, 293, 294, 295, 296
 297, 298, 299, 300, 301, 302, 303, 304, 305, 306, 307, 308, 309, 310, 311, 312
*Elset, elset=E6_2, instance=Part-1-1
 265, 266, 267, 268, 269, 270, 271, 272, 273, 274, 275, 276, 277, 278, 279, 280
 281, 282, 283, 284, 285, 286, 287, 288, 313, 314, 315, 316, 317, 318, 319, 320
 321, 322, 323, 324, 325, 326, 327, 328, 329, 330, 331, 332, 333, 334, 335, 336
*Elset, elset=EHex, instance=Part-1-1, generate
  97,  144,    1
*Elset, elset=Set-9, instance=Part-1-1, generate
 241,  336,    1
*Nset, nset=Set-31, instance=Part-1-1
  4,  7, 17, 18, 21, 22, 25, 26, 29, 30, 33, 34
*Nset, nset=Set-33, instance=Part-1-1
  4,  7, 17, 18, 21, 22, 29, 30, 33, 34
*Nset, nset=Set-34, instance=Part-1-1
 25, 26
*End Assembly
** 
** MATERIALS
** 
*Material, name=Material-1
*Elastic
 3e+07, 0.3
** ----------------------------------------------------------------
** 
** STEP: Step-1
** 
*Step, name=Step-1, nlgeom=NO
*Static
1., 1., 1e-05, 1.
** 
** BOUNDARY CONDITIONS
** 
** Name: BC-1 Type: Symmetry/Antisymmetry/Encastre
*Boundary
Set-33, ZSYMM
** Name: BC-2 Type: Symmetry/Antisymmetry/Encastre
*Boundary
Set-34, ENCASTRE
** 
** OUTPUT REQUESTS
** 
*Restart, write, frequency=0
** 
** FIELD OUTPUT: F-Output-1
** 
*Output, field, variable=PRESELECT
** 
** HISTORY OUTPUT: H-Output-1
** 
*Output, history, variable=PRESELECT
*End Step
