*Heading
** Job name: Job-1 Model name: Model-1
** Generated by: Abaqus/CAE 2020
*Preprint, echo=NO, model=NO, history=NO, contact=NO
**
** PARTS
**
*Part, name=Part-1
*Node
      1,         -2.5,          -1.,           0.
      2,         -2.5,          -1.,  0.200000003
      3,         -10.,          -1.,  0.200000003
      4,         -10.,          -1.,           0.
      5,         -2.5,           1.,  0.200000003
      6,         -10.,           1.,  0.200000003
      7,         -10.,           1.,           0.
      8,         -2.5,           1.,           0.
      9,           5.,           1.,  0.200000003
     10,           5.,          -1.,  0.200000003
     11,           5.,          -1.,           0.
     12,           5.,           1.,           0.
     13,         -2.5,          -1.,  0.100000001
     14,  -2.69736838,          -1.,  0.200000003
     15,  -2.89473677,          -1.,  0.200000003
     16,  -3.09210515,          -1.,  0.200000003
     17,  -3.28947377,          -1.,  0.200000003
     18,  -3.48684216,          -1.,  0.200000003
     19,  -3.68421054,          -1.,  0.200000003
     20,  -3.88157892,          -1.,  0.200000003
** ... 2983 like lines cut
*Element, type=C3D8R
  1,  186, 1269, 2190,  455,    1,   13,  381,   88
  2, 1269,  198,  862, 2190,   13,    2,   14,  381
  3,  455, 2190, 2191,  456,   88,  381,  382,   87
  4, 2190,  862,  863, 2191,  381,   14,   15,  382
  5,  456, 2191, 2192,  457,   87,  382,  383,   86
  6, 2191,  863,  864, 2192,  382,   15,   16,  383
  7,  457, 2192, 2193,  458,   86,  383,  384,   85
  8, 2192,  864,  865, 2193,  383,   16,   17,  384
  9,  458, 2193, 2194,  459,   85,  384,  385,   84
 10, 2193,  865,  866, 2194,  384,   17,   18,  385
 11,  459, 2194, 2195,  460,   84,  385,  386,   83
 12, 2194,  866,  867, 2195,  385,   18,   19,  386
 13,  460, 2195, 2196,  461,   83,  386,  387,   82
 14, 2195,  867,  868, 2196,  386,   19,   20,  387
 15,  461, 2196, 2197,  462,   82,  387,  388,   81
 16, 2196,  868,  869, 2197,  387,   20,   21,  388
 17,  462, 2197, 2198,  463,   81,  388,  389,   80
 18, 2197,  869,  870, 2198,  388,   21,   22,  389
 19,  463, 2198, 2199,  464,   80,  389,  390,   79
 20, 2198,  870,  871, 2199,  389,   22,   23,  390
** ... 1804 like lines cut
*Nset, nset=U3
    1,    2,    3,    4,    5,    6,    7,    8,   13,   14,   15,   16,   17,   18,   19,   20
   21,   22,   23,   24,   25,   26,   27,   28,   29,   30,   31,   32,   33,   34,   35,   36
   37,   38,   39,   40,   41,   42,   43,   44,   45,   46,   47,   48,   49,   50,   51,   52
   53,   54,   55,   56,   57,   58,   59,   60,   61,   62,   63,   64,   65,   66,   67,   68
   69,   70,   71,   72,   73,   74,   75,   76,   77,   78,   79,   80,   81,   82,   83,   84
   85,   86,   87,   88,   89,   90,   91,   92,   93,   94,   95,   96,   97,   98,   99,  100
  101,  102,  103,  104,  105,  106,  107,  108,  109,  110,  111,  112,  113,  114,  115,  116
  117,  118,  119,  120,  121,  122,  123,  124,  125,  126,  127,  128,  129,  130,  131,  132
  133,  134,  135,  136,  137,  138,  139,  140,  141,  142,  143,  144,  145,  146,  147,  148
  149,  150,  151,  152,  153,  154,  155,  156,  157,  158,  159,  160,  161,  162,  163,  164
  165,  166,  167,  168,  169,  170,  171,  172,  173,  174,  175,  176,  177,  178,  179,  180
  181,  182,  183,  184,  185,  186,  187,  188,  189,  190,  191,  192,  193,  194,  195,  196
  197,  198,  199,  200,  201,  202,  203,  204,  205,  206,  207,  208,  381,  382,  383,  384
  385,  386,  387,  388,  389,  390,  391,  392,  393,  394,  395,  396,  397,  398,  399,  400
  401,  402,  403,  404,  405,  406,  407,  408,  409,  410,  411,  412,  413,  414,  415,  416
  417,  418,  419,  420,  421,  422,  423,  424,  425,  426,  427,  428,  429,  430,  431,  432
  433,  434,  435,  436,  437,  438,  439,  440,  441,  442,  443,  444,  445,  446,  447,  448
  449,  450,  451,  452,  453,  454,  455,  456,  457,  458,  459,  460,  461,  462,  463,  464
  465,  466,  467,  468,  469,  470,  471,  472,  473,  474,  475,  476,  477,  478,  479,  480
  481,  482,  483,  484,  485,  486,  487,  488,  489,  490,  491,  492,  493,  494,  495,  496
** ... 76 like lines cut
*Elset, elset=U3, generate
   1,  912,    1
*Nset, nset=U4
    1,    2,    5,    8,    9,   10,   11,   12,   13,   89,  176,  177,  178,  179,  180,  181
  182,  183,  184,  185,  186,  198,  199,  200,  201,  202,  203,  204,  205,  206,  207,  208
  209,  210,  211,  212,  213,  214,  215,  216,  217,  218,  219,  220,  221,  222,  223,  224
  225,  226,  227,  228,  229,  230,  231,  232,  233,  234,  235,  236,  237,  238,  239,  240
  241,  242,  243,  244,  245,  246,  247,  248,  249,  250,  251,  252,  253,  254,  255,  256
  257,  258,  259,  260,  261,  262,  263,  264,  265,  266,  267,  268,  269,  270,  271,  272
  273,  274,  275,  276,  277,  278,  279,  280,  281,  282,  283,  284,  285,  286,  287,  288
  289,  290,  291,  292,  293,  294,  295,  296,  297,  298,  299,  300,  301,  302,  303,  304
  305,  306,  307,  308,  309,  310,  311,  312,  313,  314,  315,  316,  317,  318,  319,  320
  321,  322,  323,  324,  325,  326,  327,  328,  329,  330,  331,  332,  333,  334,  335,  336
  337,  338,  339,  340,  341,  342,  343,  344,  345,  346,  347,  348,  349,  350,  351,  352
  353,  354,  355,  356,  357,  358,  359,  360,  361,  362,  363,  364,  365,  366,  367,  368
  369,  370,  371,  372,  373,  374,  375,  376,  377,  378,  379,  380, 1269, 1270, 1271, 1272
 1273, 1274, 1275, 1276, 1277, 1278, 1279, 1291, 1292, 1293, 1294, 1295, 1296, 1297, 1298, 1299
 1300, 1301, 1302, 1303, 1304, 1305, 1306, 1307, 1308, 1309, 1310, 1311, 1312, 1313, 1314, 1315
 1316, 1317, 1318, 1319, 1320, 1321, 1322, 1323, 1324, 1325, 1326, 1327, 1328, 1329, 1330, 1331
 1332, 1333, 1334, 1335, 1336, 1337, 1338, 1339, 1340, 1341, 1342, 1343, 1344, 1345, 1346, 1347
 1348, 1349, 1350, 1351, 1352, 1353, 1354, 1355, 1356, 1357, 1358, 1359, 1360, 1361, 1362, 1363
 1364, 1365, 1366, 1367, 1368, 1369, 1370, 1371, 1372, 1373, 1374, 1375, 1376, 1377, 1378, 1379
 1380, 1381, 1382, 1383, 1384, 1385, 1386, 1387, 1388, 1389, 1390, 1391, 1392, 1393, 1394, 1395
** ... 76 like lines cut
*Elset, elset=U4, generate
  913,  1824,     1
*Nset, nset=edge
    1,    2,    5,    8,   13,   89,  176,  177,  178,  179,  180,  181,  182,  183,  184,  185
  186,  198,  199,  200,  201,  202,  203,  204,  205,  206,  207,  208, 1269, 1270, 1271, 1272
 1273, 1274, 1275, 1276, 1277, 1278, 1279
*End Part
**  
**
** ASSEMBLY
**
*Assembly, name=Assembly
**  
*Instance, name=Part-1-1, part=Part-1
*End Instance
**  
*End Assembly
** 
** MATERIALS
** 
*Material, name=Material-1
*Density
0.,
** 
** BOUNDARY CONDITIONS
** 
** Name: BC-1 Type: Symmetry/Antisymmetry/Encastre
*Boundary
Part-1-1.edge, ENCASTRE
