*Heading
Three-dimensional magnetic body
************************************************************************
** this input file is for UEL subroutine uMag.for
**    1. user needs to define applied magnetic field:
**       unit directional vector and magnitude.
**    2. user needs to define material's mechanical properties: 
**       shear modulus (Gshear) and bulk modulus (Kbulk).
**    3. user needs to define material's magnetic moment density:
**       components along x,y,z directions.
**
**	UNITS:	Length - meters, Force - Newtons,
**		Stress - Newton/meter^2 = Pa, Mass - kilograms,
**		Density - kg/meter^3, Energy - Joules
**
**  model description: 
**  beam actuation with single magnetization direction (1,0,0)
**  and applied magnetic field along (0,1,0)
**
**  Implemented in Abaqus 2016
**  Created by Ruike Zhao, 2017
**  Please refer to paper "Printing ferromagnetic domains 
**  for untethered fast-transforming soft materials, Nature(2018)"
************************************************************************
*Parameter
** 
** final magnitude of the applied magnetic field (Tesla)
magFieldMag = 0.00015
**
** applied magnetic field unit vector
magFieldVecX = 0.0
magFieldVecY = 0.0
magFieldVecZ = 1.0
**
**	MATERIAL PARAMETERS 
**
** initial magnetic moment density (A/m)
Mx = 100.0
My = 0.0
Mz = 0.0
**
** initial shear modulus (Pa)
Gshear = 0.33
**
** bulk modulus (Pa)
Kbulk = 1000.0*Gshear
**
** number of body integration points
nInt = 8
**
** number of real material properties
nProps = 5
**
** number of integer material properties
nJProps = 1
**
************************************************************************
**		MODEL DEFINITION
************************************************************************
**
*Node, nset=Nall
      1,         -2.5,          -1.,           0.
      2,         -2.5,          -1.,  0.200000003
      3,         -10.,          -1.,  0.200000003
      4,         -10.,          -1.,           0.
      5,         -2.5,           1.,  0.200000003
      6,         -10.,           1.,  0.200000003
      7,         -10.,           1.,           0.
      8,         -2.5,           1.,           0.
      9,           5.,           1.,  0.200000003
     10,           5.,          -1.,  0.200000003
     11,           5.,          -1.,           0.
     12,           5.,           1.,           0.
     13,         -2.5,          -1.,  0.100000001
     14,  -2.69736838,          -1.,  0.200000003
     15,  -2.89473677,          -1.,  0.200000003
     16,  -3.09210515,          -1.,  0.200000003
     17,  -3.28947377,          -1.,  0.200000003
     18,  -3.48684216,          -1.,  0.200000003
     19,  -3.68421054,          -1.,  0.200000003
     20,  -3.88157892,          -1.,  0.200000003
** ... 2983 like lines cut
*User Element,Nodes=8,Type=U3,Iproperties=<nJProps>,Properties=<nProps>,Coordinates=3,Unsymm
1,2,3
*Element, type=U3
  1,  186, 1269, 2190,  455,    1,   13,  381,   88
  2, 1269,  198,  862, 2190,   13,    2,   14,  381
  3,  455, 2190, 2191,  456,   88,  381,  382,   87
  4, 2190,  862,  863, 2191,  381,   14,   15,  382
  5,  456, 2191, 2192,  457,   87,  382,  383,   86
  6, 2191,  863,  864, 2192,  382,   15,   16,  383
  7,  457, 2192, 2193,  458,   86,  383,  384,   85
  8, 2192,  864,  865, 2193,  383,   16,   17,  384
  9,  458, 2193, 2194,  459,   85,  384,  385,   84
 10, 2193,  865,  866, 2194,  384,   17,   18,  385
 11,  459, 2194, 2195,  460,   84,  385,  386,   83
 12, 2194,  866,  867, 2195,  385,   18,   19,  386
 13,  460, 2195, 2196,  461,   83,  386,  387,   82
 14, 2195,  867,  868, 2196,  386,   19,   20,  387
 15,  461, 2196, 2197,  462,   82,  387,  388,   81
 16, 2196,  868,  869, 2197,  387,   20,   21,  388
 17,  462, 2197, 2198,  463,   81,  388,  389,   80
 18, 2197,  869,  870, 2198,  388,   21,   22,  389
 19,  463, 2198, 2199,  464,   80,  389,  390,   79
 20, 2198,  870,  871, 2199,  389,   22,   23,  390
** ... 892 like lines cut
*User Element,Nodes=8,Type=U4,Iproperties=<nJProps>,Properties=<nProps>,Coordinates=3,Unsymm
1,2,3
*Element, type=U4
 913,  306, 1376, 2597, 1302,    9,  209, 1291,  232
 914, 1376, 1377, 2598, 2597,  209,  210, 1292, 1291
 915, 1377, 1378, 2599, 2598,  210,  211, 1293, 1292
 916, 1378, 1379, 2600, 2599,  211,  212, 1294, 1293
 917, 1379, 1380, 2601, 2600,  212,  213, 1295, 1294
 918, 1380, 1381, 2602, 2601,  213,  214, 1296, 1295
 919, 1381, 1382, 2603, 2602,  214,  215, 1297, 1296
 920, 1382, 1383, 2604, 2603,  215,  216, 1298, 1297
 921, 1383, 1384, 2605, 2604,  216,  217, 1299, 1298
 922, 1384, 1385, 2606, 2605,  217,  218, 1300, 1299
 923, 1385, 1386, 2607, 2606,  218,  219, 1301, 1300
 924, 1386,  344, 1339, 2607,  219,   10,  220, 1301
 925, 1302, 2597, 1783,  233,  232, 1291,  231,   12
 926, 2597, 2598, 1784, 1783, 1291, 1292,  230,  231
 927, 2598, 2599, 1785, 1784, 1292, 1293,  229,  230
 928, 2599, 2600, 1786, 1785, 1293, 1294,  228,  229
 929, 2600, 2601, 1787, 1786, 1294, 1295,  227,  228
 930, 2601, 2602, 1788, 1787, 1295, 1296,  226,  227
 931, 2602, 2603, 1789, 1788, 1296, 1297,  225,  226
 932, 2603, 2604, 1790, 1789, 1297, 1298,  224,  225
** ... 892 like lines cut
*Nset, nset=beam, generate
  1,  3003,   1
*Elset, elset=beam, generate
  1,  1824,   1
*Nset, nset=edge
    1,    2,    5,    8,   13,   89,  176,  177,  178,  179,  180,  181,  182,  183,  184,  185
  186,  198,  199,  200,  201,  202,  203,  204,  205,  206,  207,  208, 1269, 1270, 1271, 1272
 1273, 1274, 1275, 1276, 1277, 1278, 1279
**==========================================================================
** Make the Dummy Mesh
**
*Element, type=C3D8, elset=ElDummy
2001,	186,	1269,	2190,	455,	1,	13,	381,	88
2002,	1269,	198,	862,	2190,	13,	2,	14,	381
2003,	455,	2190,	2191,	456,	88,	381,	382,	87
2004,	2190,	862,	863,	2191,	381,	14,	15,	382
2005,	456,	2191,	2192,	457,	87,	382,	383,	86
2006,	2191,	863,	864,	2192,	382,	15,	16,	383
2007,	457,	2192,	2193,	458,	86,	383,	384,	85
2008,	2192,	864,	865,	2193,	383,	16,	17,	384
2009,	458,	2193,	2194,	459,	85,	384,	385,	84
2010,	2193,	865,	866,	2194,	384,	17,	18,	385
2011,	459,	2194,	2195,	460,	84,	385,	386,	83
2012,	2194,	866,	867,	2195,	385,	18,	19,	386
2013,	460,	2195,	2196,	461,	83,	386,	387,	82
2014,	2195,	867,	868,	2196,	386,	19,	20,	387
2015,	461,	2196,	2197,	462,	82,	387,	388,	81
2016,	2196,	868,	869,	2197,	387,	20,	21,	388
2017,	462,	2197,	2198,	463,	81,	388,	389,	80
2018,	2197,	869,	870,	2198,	388,	21,	22,	389
2019,	463,	2198,	2199,	464,	80,	389,	390,	79
2020,	2198,	870,	871,	2199,	389,	22,	23,	390
** ... 1804 like lines cut
**
************************************************************************
**			MATERIAL DEFINITION
************************************************************************
**
** Material properties for the real material
**
*uel property,elset=beam
<Gshear>,<Kbulk>,<Mx>,<My>,<Mz>,<nInt>
**
** Dummy mesh material properties
**
*Solid section, elset=ElDummy, material=Material-2
**
*Material, name=Material-1
*Elastic
1.e-20
*Conductivity
1.0
*Density
1.0
**
*Material, name=Material-2
*Elastic
1.e-20
*Density
2500.e-12
**
************************************************************************
**			INITIAL CONDITIONS
************************************************************************
**
**
*Initial conditions, type=field, variable=1
Nall,<magFieldVecX>
*Initial conditions, type=field, variable=2
Nall,<magFieldVecY>
*Initial conditions, type=field, variable=3
Nall,<magFieldVecZ>
*Initial conditions, type=field, variable=4
Nall,<magFieldMag>
**
************************************************************************
**			AMPLITUDE DEFINITION
************************************************************************
*Amplitude, name=magFieldMagAmp
0.0,0.0,1.,<magFieldMag>
**
************************************************************************
**			STEP DEFINITION
************************************************************************
*Step, Name=Deform, nlgeom=yes, inc=100000
*Static
0.2,1.,1.e-6,1.
*Controls, Parameters=Time Incrementation
,,,,,,,10,,,,,,
**
************************************************************************
**			BOUNDARY CONDITIONS
************************************************************************
** BOUNDARY CONDITIONS
** 
** Name: fix-edge Type: Symmetry/Antisymmetry/Encastre
*Boundary
edge, ENCASTRE
**
** define Dload to include gravity
*Dload
, GRAV, 10000, 0., 0., -1.
** ----------------------------------------------------------------
** 
*Field, variable=1
Nall,<magFieldVecX>
*Field, variable=2
Nall,<magFieldVecY>
*Field, variable=3
Nall,<magFieldVecZ>
*Field, variable=4, amplitude=magFieldMagAmp
Nall,1.0
**
**
*Output, field
*node output, nset=Nall
u
*element output, elset=ElDummy
le,ne
**
*End Step
