*Heading
** Job name: Job-1 Model name: Model-1
** Generated by: Abaqus/CAE 2020
*Preprint, echo=NO, model=NO, history=NO, contact=NO
**
** PARTS
**
*Part, name=Part-1
*Node
      1,         -7.5,          -6.,           0.
      2,        -6.75,        -6.75,           0.
      3,         -7.5,         -7.5,           0.
      4,        -6.75,        -6.75,  0.200000003
      5,         -7.5,          -6.,  0.200000003
      6,         -7.5,         -7.5,  0.200000003
      7,          -6.,         -7.5,           0.
      8,          -6.,         -7.5,  0.200000003
      9,          7.5,          -6.,  0.200000003
     10,         6.75,        -6.75,  0.200000003
     11,          7.5,         -7.5,  0.200000003
     12,         6.75,        -6.75,           0.
     13,          7.5,          -6.,           0.
     14,          7.5,         -7.5,           0.
     15,           6.,         -7.5,           0.
     16,           6.,         -7.5,  0.200000003
     17,         6.75,         6.75,           0.
     18,           6.,          7.5,           0.
     19,          7.5,          7.5,           0.
     20,           6.,          7.5,  0.200000003
** ... 1168 like lines cut
*Element, type=C3D8
 1,  661,  164,  659, 1082,  161,    1,  162,  657
 2, 1082,  659,  660, 1081,  657,  162,  163,  658
 3,  660,  167,  662, 1081,  163,    2,  165,  658
 4,  662,  663, 1082, 1081,  165,  166,  657,  658
 5,  663,  168,  661, 1082,  166,    3,  161,  657
 6,  664,  171,  662, 1081,  169,    4,  167,  660
 7,  661,  173,  665, 1082,  164,    5,  170,  659
 8, 1082,  665,  664, 1081,  659,  170,  169,  660
 9,  664,  665, 1082, 1081,  171,  172,  663,  662
10,  665,  173,  661, 1082,  172,    6,  168,  663
11,  662,  167,  668, 1083,  165,    2,  174,  666
12,  668,  669, 1084, 1083,  174,  175,  667,  666
13,  669,  177,  670, 1084,  175,    7,  176,  667
14,  670,  168,  663, 1084,  176,    3,  166,  667
15, 1084,  663,  662, 1083,  667,  166,  165,  666
16,  671,  672, 1084, 1083,  179,  178,  669,  668
17,  672,  180,  670, 1084,  178,    8,  177,  669
18,  662,  171,  671, 1083,  167,    4,  179,  668
19,  670,  180,  672, 1084,  168,    6,  172,  663
20, 1084,  672,  671, 1083,  663,  172,  171,  662
** ... 612 like lines cut
*Nset, nset=Set-1, generate
    1,  1188,     1
*Elset, elset=Set-1, generate
   1,  632,    1
*Nset, nset=U3
   17,   18,   20,   21,   25,   26,   28,   29,   46,   48,   49,   50,   51,   52,   54,   55
   58,   59,   61,   63,   64,   66,   67,   68,   69,   70,   71,   72,   73,   74,   77,   78
   79,   80,   84,   88,   89,   90,   91,   92,   93,   94,   97,   98,   99,  100,  101,  102
  105,  106,  117,  118,  123,  124,  126,  129,  133,  136,  138,  140,  141,  142,  149,  151
  153,  154,  155,  156,  157,  158,  159,  160,  197,  198,  199,  201,  203,  204,  216,  217
  219,  221,  260,  271,  272,  273,  274,  275,  277,  278,  280,  282,  290,  291,  294,  297
  300,  304,  305,  310,  311,  312,  313,  314,  315,  316,  317,  318,  319,  320,  321,  322
  323,  324,  325,  326,  327,  328,  330,  331,  333,  339,  344,  345,  346,  347,  348,  365
  372,  373,  374,  376,  377,  379,  381,  382,  383,  386,  389,  395,  400,  401,  402,  404
  405,  407,  413,  443,  444,  446,  447,  449,  462,  463,  464,  465,  466,  467,  468,  469
  470,  471,  472,  473,  474,  483,  498,  499,  506,  512,  517,  518,  519,  520,  525,  565
  566,  567,  573,  574,  575,  576,  577,  578,  579,  580,  581,  582,  583,  584,  585,  586
  587,  588,  589,  590,  591,  592,  593,  594,  599,  604,  605,  606,  607,  608,  609,  610
  611,  614,  615,  616,  617,  618,  619,  620,  621,  622,  623,  624,  641,  642,  643,  644
  645,  646,  647,  648,  684,  685,  699,  740,  741,  743,  754,  758,  763,  764,  765,  766
  767,  768,  769,  770,  771,  772,  773,  774,  775,  776,  777,  778,  780,  793,  794,  814
  818,  819,  828,  836,  838,  867,  868,  881,  882,  883,  884,  885,  886,  887,  888,  889
  890,  891,  892,  913,  932,  933,  978,  979,  982,  983,  984,  985,  986,  987,  988,  989
  990,  991,  992,  993,  994,  995,  996, 1000, 1001, 1009, 1010, 1011, 1012, 1013, 1014, 1015
 1016, 1017, 1018, 1019, 1020, 1026, 1027, 1028, 1029, 1030, 1031, 1032, 1033, 1034, 1035, 1036
 1059, 1060, 1061, 1062, 1063, 1064, 1065, 1066, 1067, 1068, 1105, 1106, 1107, 1108, 1133, 1134
 1135, 1159, 1160, 1161, 1162, 1166, 1167, 1168, 1169, 1172, 1173, 1174, 1182, 1183, 1184
*Elset, elset=U3
 139, 140, 141, 142, 143, 144, 145, 146, 147, 148, 149, 150, 151, 152, 153, 154
 155, 156, 157, 158, 159, 160, 303, 304, 305, 306, 307, 308, 309, 310, 311, 312
 313, 314, 315, 316, 317, 318, 319, 320, 321, 322, 455, 456, 457, 458, 459, 460
 461, 462, 463, 464, 465, 466, 467, 468, 469, 470, 471, 472, 473, 474, 475, 476
 497, 498, 499, 500, 501, 502, 503, 504, 505, 506, 507, 508, 509, 510, 511, 512
 513, 514, 515, 516, 517, 518, 529, 530, 531, 532, 533, 534, 535, 536, 537, 538
 539, 540, 541, 542, 543, 544, 545, 546, 547, 548, 591, 592, 593, 594, 595, 596
 597, 598, 599, 600, 601, 602, 603, 604, 605, 606, 607, 608, 609, 610
*Nset, nset=U4
    9,   10,   12,   13,   17,   21,   23,   24,   33,   34,   36,   37,   39,   40,   43,   44
   46,   48,   49,   50,   51,   54,   57,   58,   59,   60,   61,   62,   63,   64,   65,   66
   84,   85,   87,   88,   93,   94,   95,   96,   97,   98,   99,  100,  101,  102,  103,  104
  105,  106,  107,  108,  109,  110,  111,  112,  126,  127,  129,  130,  133,  136,  141,  142
  143,  144,  147,  148,  153,  156,  157,  158,  182,  183,  185,  187,  199,  208,  209,  211
  212,  213,  230,  231,  233,  235,  238,  241,  244,  254,  255,  256,  260,  263,  264,  265
  266,  267,  268,  269,  270,  271,  272,  273,  274,  275,  278,  285,  286,  287,  288,  289
  290,  291,  292,  293,  294,  295,  296,  297,  298,  299,  300,  301,  302,  303,  304,  305
  306,  307,  308,  309,  363,  364,  365,  366,  369,  370,  383,  384,  385,  386,  387,  388
  389,  390,  391,  392,  393,  394,  395,  396,  397,  398,  399,  400,  401,  402,  403,  404
  405,  406,  407,  408,  409,  410,  411,  412,  413,  414,  415,  416,  417,  418,  419,  420
  421,  422,  423,  424,  425,  426,  427,  428,  481,  482,  483,  484,  488,  489,  498,  517
  518,  519,  520,  521,  522,  523,  524,  525,  526,  527,  528,  529,  530,  531,  532,  546
  547,  548,  577,  578,  579,  580,  585,  591,  592,  593,  594,  595,  596,  597,  598,  599
  600,  601,  602,  603,  674,  693,  694,  708,  712,  725,  728,  729,  730,  731,  732,  733
  734,  735,  736,  737,  738,  739,  740,  741,  747,  748,  749,  750,  751,  752,  753,  754
  755,  756,  757,  758,  759,  760,  761,  762,  810,  811,  823,  824,  825,  826,  827,  828
  829,  830,  831,  832,  833,  834,  835,  836,  837,  838,  839,  840,  841,  842,  843,  844
  845,  846,  847,  848,  849,  850,  851,  852,  853,  854,  901,  902,  928,  929,  930,  931
  932,  933,  934,  935,  936,  937,  938,  939,  940,  941,  942,  957,  988,  989,  997,  998
  999, 1000, 1001, 1002, 1003, 1004, 1005, 1006, 1007, 1008, 1097, 1098, 1099, 1100, 1102, 1103
 1104, 1120, 1121, 1122, 1123, 1124, 1125, 1126, 1145, 1146, 1147, 1148, 1163, 1164, 1165
*Elset, elset=U4
  91,  92,  93,  94,  95,  96,  97,  98,  99, 100, 101, 102, 103, 104, 105, 106
 107, 108, 109, 110, 111, 112, 119, 120, 121, 122, 123, 124, 125, 126, 127, 128
 129, 130, 131, 132, 133, 134, 135, 136, 137, 138, 221, 222, 223, 224, 225, 226
 227, 228, 229, 230, 231, 232, 233, 234, 235, 236, 237, 238, 239, 240, 241, 242
 243, 244, 245, 246, 247, 248, 249, 250, 251, 252, 253, 254, 255, 256, 257, 258
 259, 260, 261, 262, 371, 372, 373, 374, 375, 376, 377, 378, 379, 380, 381, 382
 383, 384, 385, 386, 387, 388, 389, 390, 391, 392, 477, 478, 479, 480, 481, 482
 483, 484, 485, 486, 487, 488, 489, 490, 491, 492, 493, 494, 495, 496
*Nset, nset=U5
    2,    4,    7,    8,   10,   12,   15,   16,   33,   36,   39,   40,   41,   42,   43,   44
   45,   46,   47,   48,   51,   53,   54,   56,   57,   60,   62,   63,   65,   66,   67,   68
   73,   74,   75,   76,   81,   82,   83,   84,   85,   86,   87,   88,   93,   94,   95,   96
  107,  108,  111,  112,  113,  114,  115,  116,  121,  122,  131,  132,  133,  134,  135,  136
  137,  139,  143,  144,  145,  146,  147,  148,  167,  174,  175,  177,  178,  179,  185,  191
  192,  193,  231,  238,  239,  240,  241,  242,  243,  244,  245,  246,  247,  248,  249,  250
  251,  252,  253,  254,  255,  256,  257,  258,  259,  260,  261,  262,  276,  278,  281,  283
  285,  288,  289,  295,  296,  301,  302,  303,  304,  308,  309,  310,  329,  330,  332,  334
  349,  350,  351,  352,  353,  354,  355,  356,  357,  358,  359,  360,  361,  362,  363,  364
  365,  366,  367,  368,  369,  370,  383,  384,  385,  387,  388,  390,  418,  419,  420,  423
  427,  428,  429,  430,  431,  432,  433,  434,  435,  436,  437,  438,  439,  440,  441,  442
  459,  460,  461,  490,  491,  493,  495,  496,  497,  498,  500,  503,  507,  508,  511,  513
  514,  530,  531,  532,  533,  534,  535,  536,  537,  538,  539,  540,  541,  542,  543,  544
  545,  546,  547,  548,  549,  550,  551,  552,  553,  554,  555,  556,  625,  626,  627,  628
  629,  630,  631,  632,  668,  669,  679,  712,  713,  714,  715,  716,  717,  718,  719,  720
  721,  722,  723,  724,  725,  726,  727,  744,  752,  753,  761,  762,  779,  795,  796,  797
  798,  799,  800,  801,  802,  803,  804,  805,  806,  807,  808,  809,  810,  811,  823,  824
  851,  852,  855,  856,  857,  858,  859,  860,  861,  862,  863,  864,  865,  866,  880,  907
  908,  912,  924,  925,  942,  943,  944,  945,  946,  947,  948,  949,  950,  951,  952,  953
  954,  955,  956,  957,  958,  959,  960,  961,  962,  963,  964,  965,  966,  967, 1037, 1038
 1039, 1040, 1041, 1042, 1043, 1044, 1045, 1046, 1047, 1048, 1094, 1095, 1096, 1113, 1114, 1115
 1116, 1127, 1128, 1129, 1149, 1150, 1151, 1152, 1153, 1154, 1155, 1175, 1176, 1177, 1178
*Elset, elset=U5
  71,  72,  73,  74,  75,  76,  77,  78,  79,  80,  81,  82,  83,  84,  85,  86
  87,  88,  89,  90, 183, 184, 185, 186, 187, 188, 189, 190, 191, 192, 193, 194
 195, 196, 197, 198, 199, 200, 201, 202, 203, 204, 263, 264, 265, 266, 267, 268
 269, 270, 271, 272, 273, 274, 275, 276, 277, 278, 279, 280, 281, 282, 393, 394
 395, 396, 397, 398, 399, 400, 401, 402, 403, 404, 405, 406, 407, 408, 409, 410
 411, 412, 413, 414, 415, 416, 417, 418, 419, 420, 421, 422, 423, 424, 425, 426
 427, 428, 429, 430, 431, 432, 433, 434, 549, 550, 551, 552, 553, 554, 555, 556
 557, 558, 559, 560, 561, 562, 563, 564, 565, 566, 567, 568, 569, 570
*Nset, nset=U6
    1,    2,    4,    5,   26,   28,   31,   32,   33,   35,   36,   38,   41,   42,   45,   46
   47,   48,   63,   66,   67,   68,   69,   70,   73,   74,   75,   76,   77,   78,   79,   80
   93,   94,  101,  102,  108,  111,  113,  114,  115,  116,  117,  118,  119,  120,  121,  122
  123,  124,  125,  126,  128,  129,  133,  134,  135,  136,  137,  138,  139,  140,  145,  146
  149,  150,  151,  152,  154,  155,  159,  160,  162,  163,  164,  167,  169,  170,  219,  225
  226,  227,  229,  231,  234,  236,  239,  240,  242,  243,  249,  257,  258,  259,  260,  261
  262,  304,  310,  311,  312,  315,  316,  319,  329,  330,  331,  332,  333,  334,  335,  336
  337,  338,  339,  340,  341,  342,  343,  344,  345,  346,  347,  348,  383,  404,  423,  429
  430,  431,  440,  441,  442,  443,  444,  445,  446,  447,  448,  449,  450,  451,  452,  453
  454,  455,  456,  457,  458,  459,  460,  461,  470,  471,  472,  473,  474,  478,  479,  480
  483,  485,  486,  497,  498,  499,  500,  501,  502,  503,  504,  505,  506,  507,  508,  509
  510,  511,  512,  513,  514,  515,  516,  533,  534,  535,  536,  537,  557,  558,  559,  560
  561,  562,  563,  564,  565,  566,  567,  568,  569,  570,  571,  572,  573,  574,  586,  587
  588,  614,  615,  616,  633,  634,  635,  636,  637,  638,  639,  640,  649,  650,  651,  652
  653,  654,  655,  656,  659,  660,  704,  709,  713,  714,  726,  727,  763,  764,  779,  780
  781,  782,  783,  784,  785,  786,  787,  788,  789,  790,  791,  792,  793,  794,  855,  866
  867,  868,  869,  870,  871,  872,  873,  874,  875,  876,  877,  878,  879,  880,  891,  892
  898,  899,  912,  913,  914,  915,  916,  917,  918,  919,  920,  921,  922,  923,  924,  925
  926,  927,  943,  944,  968,  969,  970,  971,  972,  973,  974,  975,  976,  977,  978,  979
  980,  981,  996, 1026, 1049, 1050, 1051, 1052, 1053, 1054, 1055, 1056, 1057, 1058, 1069, 1070
 1071, 1072, 1073, 1074, 1075, 1076, 1077, 1078, 1079, 1080, 1109, 1110, 1111, 1112, 1130, 1131
 1132, 1141, 1142, 1143, 1144, 1156, 1157, 1158, 1179, 1180, 1181, 1185, 1186, 1187, 1188
*Elset, elset=U6
 161, 162, 163, 164, 165, 166, 167, 168, 169, 170, 171, 172, 173, 174, 175, 176
 177, 178, 179, 180, 181, 182, 283, 284, 285, 286, 287, 288, 289, 290, 291, 292
 293, 294, 295, 296, 297, 298, 299, 300, 301, 302, 349, 350, 351, 352, 353, 354
 355, 356, 357, 358, 359, 360, 361, 362, 363, 364, 365, 366, 367, 368, 369, 370
 435, 436, 437, 438, 439, 440, 441, 442, 443, 444, 445, 446, 447, 448, 449, 450
 451, 452, 453, 454, 571, 572, 573, 574, 575, 576, 577, 578, 579, 580, 581, 582
 583, 584, 585, 586, 587, 588, 589, 590, 611, 612, 613, 614, 615, 616, 617, 618
 619, 620, 621, 622, 623, 624, 625, 626, 627, 628, 629, 630, 631, 632
*Nset, nset=U7
    1,    2,    3,    4,    5,    6,    7,    8,    9,   10,   11,   12,   13,   14,   15,   16
   17,   18,   19,   20,   21,   22,   23,   24,   25,   26,   27,   28,   29,   30,   31,   32
   33,   34,   35,   36,   37,   38,   51,   52,   53,   54,   55,   56,   67,   68,   71,   72
  101,  102,  103,  104,  108,  109,  110,  111,  119,  120,  125,  126,  127,  128,  129,  130
  131,  132,  150,  152,  161,  162,  163,  164,  165,  166,  167,  168,  169,  170,  171,  172
  173,  174,  175,  176,  177,  178,  179,  180,  181,  182,  183,  184,  185,  186,  187,  188
  189,  190,  191,  192,  193,  194,  195,  196,  197,  198,  199,  200,  201,  202,  203,  204
  205,  206,  207,  208,  209,  210,  211,  212,  213,  214,  215,  216,  217,  218,  219,  220
  221,  222,  223,  224,  225,  226,  227,  228,  229,  230,  231,  232,  233,  234,  235,  236
  237,  276,  277,  278,  279,  280,  281,  282,  283,  284,  310,  313,  314,  317,  318,  324
  403,  404,  406,  408,  421,  422,  423,  424,  425,  426,  445,  448,  454,  475,  476,  477
  478,  479,  480,  481,  482,  483,  484,  485,  486,  487,  488,  489,  490,  491,  492,  493
  494,  495,  496,  559,  560,  561,  562,  570,  612,  613,  657,  658,  659,  660,  661,  662
  663,  664,  665,  666,  667,  668,  669,  670,  671,  672,  673,  674,  675,  676,  677,  678
  679,  680,  681,  682,  683,  684,  685,  686,  687,  688,  689,  690,  691,  692,  693,  694
  695,  696,  697,  698,  699,  700,  701,  702,  703,  704,  705,  706,  707,  708,  709,  710
  711,  742,  743,  744,  745,  746,  769,  770,  837,  853,  854,  872,  893,  894,  895,  896
  897,  898,  899,  900,  901,  902,  903,  904,  905,  906,  907,  908,  909,  910,  911,  973
  974, 1021, 1022, 1023, 1024, 1025, 1081, 1082, 1083, 1084, 1085, 1086, 1087, 1088, 1089, 1090
 1091, 1092, 1093, 1101, 1136, 1137, 1138, 1139, 1140, 1170, 1171
*Elset, elset=U7
   1,   2,   3,   4,   5,   6,   7,   8,   9,  10,  11,  12,  13,  14,  15,  16
  17,  18,  19,  20,  21,  22,  23,  24,  25,  26,  27,  28,  29,  30,  31,  32
  33,  34,  35,  36,  37,  38,  39,  40,  41,  42,  43,  44,  45,  46,  47,  48
  49,  50,  51,  52,  53,  54,  55,  56,  57,  58,  59,  60,  61,  62,  63,  64
  65,  66,  67,  68,  69,  70, 113, 114, 115, 116, 117, 118, 323, 324, 325, 326
 327, 328, 329, 330, 331, 332, 333, 334, 335, 336, 337, 338, 339, 340, 341, 342
 343, 344, 345, 346, 347, 348, 519, 520, 521, 522, 523, 524, 525, 526, 527, 528
** Section: Section-1
*Solid Section, elset=Set-1, material=Material-1
,
*End Part
**  
**
** ASSEMBLY
**
*Assembly, name=Assembly
**  
*Instance, name=Part-1-1, part=Part-1
*End Instance
**  
*Nset, nset=edge, instance=Part-1-1
  10,  28,  36,  54,  73,  93, 102, 133
*End Assembly
** 
** MATERIALS
** 
*Material, name=Material-1
*Density
2.,
