*Heading
Three-dimensional magnetic body
************************************************************************
** this input file is for UEL subroutine uMag.for
**    1. user needs to define applied magnetic field:
**       unit directional vector and magnitude.
**    2. user needs to define material's mechanical properties: 
**       shear modulus (Gshear) and bulk modulus (Kbulk).
**    3. user needs to define material's magnetic moment density:
**       components along x,y,z directions.
**
**	UNITS:	Length - meters, Force - Newtons,
**		Stress - Newton/meter^2 = Pa, Mass - kilograms,
**		Density - kg/meter^3, Energy - Joules
**
**  model description: 
**  beam actuation with single magnetization direction (1,0,0)
**  and applied magnetic field along (0,1,0)
**
**  Implemented in Abaqus 2016
**  Created by Ruike Zhao, 2017
**  Please refer to paper "Printing ferromagnetic domains 
**  for untethered fast-transforming soft materials, Nature(2018)"
************************************************************************
*Parameter
** 
** final magnitude of the applied magnetic field (Tesla)
magFieldMag = 0.000150
**
** applied magnetic field unit vector
magFieldVecX = 0.0
magFieldVecY = 0.0
magFieldVecZ = 1.0
**
**	MATERIAL PARAMETERS 
**
** initial magnetic moment density (A/m)
Mx = 100.0
My = 0.0
Mz = 0.0
**
** initial shear modulus (Pa)
Gshear = 0.33
**
** bulk modulus (Pa)
Kbulk = 1000.0*Gshear
**
** number of body integration points
nInt = 8
**
** number of real material properties
nProps = 5
**
** number of integer material properties
nJProps = 1
**
************************************************************************
**		MODEL DEFINITION
************************************************************************
**
*Node, nset=Nall
      1,         -7.5,          -6.,           0.
      2,        -6.75,        -6.75,           0.
      3,         -7.5,         -7.5,           0.
      4,        -6.75,        -6.75,  0.200000003
      5,         -7.5,          -6.,  0.200000003
      6,         -7.5,         -7.5,  0.200000003
      7,          -6.,         -7.5,           0.
      8,          -6.,         -7.5,  0.200000003
      9,          7.5,          -6.,  0.200000003
     10,         6.75,        -6.75,  0.200000003
     11,          7.5,         -7.5,  0.200000003
     12,         6.75,        -6.75,           0.
     13,          7.5,          -6.,           0.
     14,          7.5,         -7.5,           0.
     15,           6.,         -7.5,           0.
     16,           6.,         -7.5,  0.200000003
     17,         6.75,         6.75,           0.
     18,           6.,          7.5,           0.
     19,          7.5,          7.5,           0.
     20,           6.,          7.5,  0.200000003
** ... 1168 like lines cut
*User Element,Nodes=8,Type=U3,Iproperties=<nJProps>,Properties=<nProps>,Coordinates=3,Unsymm
1,2,3
*Element, type=U3
139,	769,	313,	765,	1108,	310,	67,	312,	763
140,	1108,	765,	766,	1107,	763,	312,	311,	764
141,	770,	314,	767,	1106,	769,	313,	765,	1108
142,	1106,	767,	768,	1105,	1108,	765,	766,	1107
143,	771,	772,	1108,	1107,	316,	315,	763,	764
144,	772,	317,	769,	1108,	315,	68,	310,	763
145,	773,	774,	1106,	1105,	771,	772,	1108,	1107
146,	774,	318,	770,	1106,	772,	317,	769,	1108
147,	775,	320,	771,	1107,	319,	69,	316,	764
148,	776,	321,	773,	1105,	775,	320,	771,	1107
149,	766,	322,	775,	1107,	311,	70,	319,	764
150,	768,	323,	776,	1105,	766,	322,	775,	1107
151,	774,	325,	777,	1106,	318,	71,	324,	770
152,	773,	326,	778,	1105,	774,	325,	777,	1106
153,	777,	327,	767,	1106,	324,	72,	314,	770
154,	778,	328,	768,	1105,	777,	327,	767,	1106
155,	776,	300,	758,	1105,	321,	61,	297,	773
156,	758,	278,	743,	1105,	297,	54,	282,	773
157,	743,	280,	778,	1105,	282,	55,	326,	773
158,	768,	328,	778,	1105,	277,	52,	280,	743
** ... 106 like lines cut
*User Element,Nodes=8,Type=U4,Iproperties=<nJProps>,Properties=<nProps>,Coordinates=3,Unsymm
1,2,3
*Element, type=U4
91,	708,	235,	728,	1097,	231,	36,	238,	712
92,	732,	230,	708,	1097,	241,	33,	231,	712
93,	736,	263,	732,	1097,	244,	39,	241,	712
94,	728,	265,	736,	1097,	238,	40,	244,	712
95,	738,	267,	728,	1097,	233,	37,	235,	708
96,	732,	269,	738,	1097,	230,	34,	233,	708
97,	738,	739,	1098,	1097,	267,	268,	729,	728
98,	739,	211,	694,	1098,	268,	23,	209,	729
99,	694,	693,	1100,	1098,	209,	208,	730,	729
100,	693,	199,	740,	1100,	208,	21,	271,	730
101,	1098,	1100,	1099,	1097,	729,	730,	731,	728
102,	1100,	740,	741,	1099,	730,	271,	272,	731
103,	741,	273,	737,	1099,	272,	49,	266,	731
104,	1099,	737,	736,	1097,	731,	266,	265,	728
105,	739,	270,	733,	1098,	211,	24,	212,	694
106,	738,	269,	732,	1097,	739,	270,	733,	1098
107,	733,	734,	1100,	1098,	212,	213,	693,	694
108,	734,	274,	740,	1100,	213,	17,	199,	693
109,	732,	735,	1099,	1097,	733,	734,	1100,	1098
110,	735,	275,	741,	1099,	734,	274,	740,	1100
** ... 106 like lines cut
*User Element,Nodes=8,Type=U5,Iproperties=<nJProps>,Properties=<nProps>,Coordinates=3,Unsymm
1,2,3
*Element, type=U5
71,	715,	239,	713,	1095,	238,	36,	231,	712
72,	716,	240,	714,	1094,	715,	239,	713,	1095
73,	713,	242,	718,	1095,	231,	33,	241,	712
74,	714,	243,	719,	1094,	713,	242,	718,	1095
75,	718,	245,	721,	1095,	241,	39,	244,	712
76,	719,	246,	722,	1094,	718,	245,	721,	1095
77,	721,	247,	715,	1095,	244,	40,	238,	712
78,	722,	248,	716,	1094,	721,	247,	715,	1095
79,	716,	250,	723,	1094,	240,	41,	249,	714
80,	723,	252,	719,	1094,	249,	42,	243,	714
81,	716,	717,	1096,	1094,	250,	251,	724,	723
82,	717,	255,	725,	1096,	251,	43,	254,	724
83,	725,	256,	720,	1096,	254,	44,	253,	724
84,	1096,	720,	719,	1094,	724,	253,	252,	723
85,	722,	259,	726,	1094,	248,	45,	257,	716
86,	726,	727,	1096,	1094,	257,	258,	717,	716
87,	727,	260,	725,	1096,	258,	46,	255,	717
88,	719,	261,	726,	1094,	246,	47,	259,	722
89,	725,	260,	727,	1096,	256,	48,	262,	720
90,	1096,	727,	726,	1094,	720,	262,	261,	719
** ... 106 like lines cut
*User Element,Nodes=8,Type=U6,Iproperties=<nJProps>,Properties=<nProps>,Coordinates=3,Unsymm
1,2,3
*Element, type=U6
161,	781,	331,	780,	1109,	329,	73,	330,	779
162,	780,	333,	785,	1109,	330,	74,	332,	779
163,	785,	335,	789,	1109,	332,	75,	334,	779
164,	789,	337,	781,	1109,	334,	76,	329,	779
165,	781,	340,	791,	1109,	331,	77,	339,	780
166,	791,	342,	785,	1109,	339,	78,	333,	780
167,	789,	790,	1110,	1109,	337,	338,	782,	781
168,	790,	346,	793,	1110,	338,	79,	344,	782
169,	793,	794,	1112,	1110,	344,	345,	783,	782
170,	794,	260,	727,	1112,	345,	46,	258,	783
171,	1110,	1112,	1111,	1109,	782,	783,	784,	781
172,	1112,	727,	726,	1111,	783,	258,	257,	784
173,	726,	259,	792,	1111,	257,	45,	341,	784
174,	1111,	792,	791,	1109,	784,	341,	340,	781
175,	785,	786,	1110,	1109,	335,	336,	790,	789
176,	786,	347,	793,	1110,	336,	80,	346,	790
177,	791,	792,	1111,	1109,	342,	343,	787,	785
178,	792,	259,	726,	1111,	343,	47,	261,	787
179,	726,	727,	1112,	1111,	261,	262,	788,	787
180,	727,	260,	794,	1112,	262,	48,	348,	788
** ... 106 like lines cut
*User Element,Nodes=8,Type=U7,Iproperties=<nJProps>,Properties=<nProps>,Coordinates=3,Unsymm
1,2,3
*Element, type=U7
1,	661,	164,	659,	1082,	161,	1,	162,	657
2,	1082,	659,	660,	1081,	657,	162,	163,	658
3,	660,	167,	662,	1081,	163,	2,	165,	658
4,	662,	663,	1082,	1081,	165,	166,	657,	658
5,	663,	168,	661,	1082,	166,	3,	161,	657
6,	664,	171,	662,	1081,	169,	4,	167,	660
7,	661,	173,	665,	1082,	164,	5,	170,	659
8,	1082,	665,	664,	1081,	659,	170,	169,	660
9,	664,	665,	1082,	1081,	171,	172,	663,	662
10,	665,	173,	661,	1082,	172,	6,	168,	663
11,	662,	167,	668,	1083,	165,	2,	174,	666
12,	668,	669,	1084,	1083,	174,	175,	667,	666
13,	669,	177,	670,	1084,	175,	7,	176,	667
14,	670,	168,	663,	1084,	176,	3,	166,	667
15,	1084,	663,	662,	1083,	667,	166,	165,	666
16,	671,	672,	1084,	1083,	179,	178,	669,	668
17,	672,	180,	670,	1084,	178,	8,	177,	669
18,	662,	171,	671,	1083,	167,	4,	179,	668
19,	670,	180,	672,	1084,	168,	6,	172,	663
20,	1084,	672,	671,	1083,	663,	172,	171,	662
** ... 92 like lines cut
*Nset, nset=beam, generate
  1,  1188,   1
*Elset, elset=beam, generate
  1,  632,   1
*Nset, nset=edge, UNSORTED
  10,  28
**==========================================================================
** Make the Dummy Mesh
**
*Element, type=C3D8, elset=ElDummy
1001,	661,	164,	659,	1082,	161,	1,	162,	657
1002,	1082,	659,	660,	1081,	657,	162,	163,	658
1003,	660,	167,	662,	1081,	163,	2,	165,	658
1004,	662,	663,	1082,	1081,	165,	166,	657,	658
1005,	663,	168,	661,	1082,	166,	3,	161,	657
1006,	664,	171,	662,	1081,	169,	4,	167,	660
1007,	661,	173,	665,	1082,	164,	5,	170,	659
1008,	1082,	665,	664,	1081,	659,	170,	169,	660
1009,	664,	665,	1082,	1081,	171,	172,	663,	662
1010,	665,	173,	661,	1082,	172,	6,	168,	663
1011,	662,	167,	668,	1083,	165,	2,	174,	666
1012,	668,	669,	1084,	1083,	174,	175,	667,	666
1013,	669,	177,	670,	1084,	175,	7,	176,	667
1014,	670,	168,	663,	1084,	176,	3,	166,	667
1015,	1084,	663,	662,	1083,	667,	166,	165,	666
1016,	671,	672,	1084,	1083,	179,	178,	669,	668
1017,	672,	180,	670,	1084,	178,	8,	177,	669
1018,	662,	171,	671,	1083,	167,	4,	179,	668
1019,	670,	180,	672,	1084,	168,	6,	172,	663
1020,	1084,	672,	671,	1083,	663,	172,	171,	662
** ... 612 like lines cut
**
************************************************************************
**			MATERIAL DEFINITION
************************************************************************
**
** Material properties for the real material
**
*uel property,elset=beam
<Gshear>,<Kbulk>,<Mx>,<My>,<Mz>,<nInt>
**
** Dummy mesh material properties
**
*Solid section, elset=ElDummy, material=Material-2
**
*Material, name=Material-1
*Elastic
1.e-20
*Conductivity
1.0
*Density
1.e-12
**
*Material, name=Material-2
*Elastic
1.e-20
*Density
2500.e-12
**
************************************************************************
**			INITIAL CONDITIONS
************************************************************************
**
**
*Initial conditions, type=field, variable=1
Nall,<magFieldVecX>
*Initial conditions, type=field, variable=2
Nall,<magFieldVecY>
*Initial conditions, type=field, variable=3
Nall,<magFieldVecZ>
*Initial conditions, type=field, variable=4
Nall,<magFieldMag>
************************************************************************

**			AMPLITUDE DEFINITION
************************************************************************
*Amplitude, name=magFieldMagAmp
0.0,0.0,1.,<magFieldMag>
**
************************************************************************
**			STEP DEFINITION
************************************************************************
*Step, Name=Deform, nlgeom=yes, inc=100000
*Static
0.2,1.,1.e-12,1.
*Controls, Parameters=Time Incrementation
,,,,,,,10,,,,,,
**
**			BOUNDARY CONDITIONS
************************************************************************
** BOUNDARY CONDITIONS
** 
** Name: fix-edge Type: Symmetry/Antisymmetry/Encastre
*Boundary
edge, ENCASTRE
** ----------------------------------------------------------------
**
** ----------------------------------------------------------------
*Field, variable=1
Nall,<magFieldVecX>
*Field, variable=2
Nall,<magFieldVecY>
*Field, variable=3
Nall,<magFieldVecZ>
*Field, variable=4, amplitude=magFieldMagAmp
Nall,1.0
**
**
*Output, field
*node output, nset=Nall
u
*element output, elset=ElDummy
le,ne
**
*End Step
