*Heading
Three-dimensional magnetic body
************************************************************************
** this input file is for UEL subroutine uMag.for
**    1. user needs to define applied magnetic field:
**       unit directional vector and magnitude.
**    2. user needs to define material's mechanical properties: 
**       shear modulus (Gshear) and bulk modulus (Kbulk).
**    3. user needs to define material's magnetic moment density:
**       components along x,y,z directions.
**
**	UNITS:	Length - meters, Force - Newtons,
**		Stress - Newton/meter^2 = Pa, Mass - kilograms,
**		Density - kg/meter^3, Energy - Joules
**
**  model description: 
**  beam actuation with single magnetization direction (1,0,0)
**  and applied magnetic field along (0,1,0)
**
**  Implemented in Abaqus 2016
**  Created by Ruike Zhao, 2017
**  Please refer to paper "Printing ferromagnetic domains 
**  for untethered fast-transforming soft materials, Nature(2018)"
************************************************************************
*Parameter
** 
** final magnitude of the applied magnetic field (Tesla)
magFieldMag = 0.00015
**
** applied magnetic field unit vector
magFieldVecX = 0.0
magFieldVecY = 0.0
magFieldVecZ = 1.0
**
**	MATERIAL PARAMETERS 
**
** initial magnetic moment density (A/m)
Mx = 100.0
My = 0.0
Mz = 0.0
**
** initial shear modulus (Pa)
Gshear = 0.33
**
** bulk modulus (Pa)
Kbulk = 1000.0*Gshear
**
** number of body integration points
nInt = 8
**
** number of real material properties
nProps = 5
**
** number of integer material properties
nJProps = 1
**
************************************************************************
**		MODEL DEFINITION
************************************************************************
**
*Node, nset=Nall
      1,   4.16666651,           1.,  0.200000003
      2,   4.16666651,           1.,           0.
      3,   3.33333325,           1.,           0.
      4,   3.33333325,           1.,  0.200000003
      5,   4.16666651,          -1.,           0.
      6,   3.33333325,          -1.,           0.
      7,   3.33333325,          -1.,  0.200000003
      8,   4.16666651,          -1.,  0.200000003
      9,           5.,           1.,  0.200000003
     10,           5.,           1.,           0.
     11,           5.,          -1.,  0.200000003
     12,           5.,          -1.,           0.
     13,          2.5,          -1.,           0.
     14,          2.5,          -1.,  0.200000003
     15,   1.66666663,          -1.,  0.200000003
     16,   1.66666663,          -1.,           0.
     17,          2.5,           1.,  0.200000003
     18,   1.66666663,           1.,  0.200000003
     19,   1.66666663,           1.,           0.
     20,          2.5,           1.,           0.
** ... 3763 like lines cut
*User Element,Nodes=8,Type=U3,Iproperties=<nJProps>,Properties=<nProps>,Coordinates=3,Unsymm
1,2,3
*Element, type=U3
1,	106,	869,	2860,	715,	1,	53,	701,	68
2,	869,	118,	792,	2860,	53,	2,	54,	701
3,	715,	2860,	2861,	716,	68,	701,	702,	67
4,	2860,	792,	793,	2861,	701,	54,	55,	702
5,	716,	2861,	2862,	717,	67,	702,	703,	66
6,	2861,	793,	794,	2862,	702,	55,	56,	703
7,	717,	2862,	2863,	718,	66,	703,	704,	65
8,	2862,	794,	795,	2863,	703,	56,	57,	704
9,	718,	2863,	2864,	719,	65,	704,	705,	64
10,	2863,	795,	796,	2864,	704,	57,	58,	705
11,	719,	2864,	2865,	720,	64,	705,	706,	63
12,	2864,	796,	797,	2865,	705,	58,	59,	706
13,	720,	2865,	2866,	721,	63,	706,	707,	62
14,	2865,	797,	798,	2866,	706,	59,	60,	707
15,	721,	2866,	880,	85,	62,	707,	61,	4
16,	2866,	798,	117,	880,	707,	60,	3,	61
17,	105,	870,	2867,	722,	106,	869,	2860,	715
18,	870,	119,	799,	2867,	869,	118,	792,	2860
19,	722,	2867,	2868,	723,	715,	2860,	2861,	716
20,	2867,	799,	800,	2868,	2860,	792,	793,	2861
** ... 1516 like lines cut
*User Element,Nodes=8,Type=U4,Iproperties=<nJProps>,Properties=<nProps>,Coordinates=3,Unsymm
1,2,3
*Element, type=U4
769,	338,	1596,	3168,	1442,	21,	285,	1428,	300
770,	1596,	350,	1519,	3168,	285,	22,	286,	1428
771,	1442,	3168,	3169,	1443,	300,	1428,	1429,	299
772,	3168,	1519,	1520,	3169,	1428,	286,	287,	1429
773,	1443,	3169,	3170,	1444,	299,	1429,	1430,	298
774,	3169,	1520,	1521,	3170,	1429,	287,	288,	1430
775,	1444,	3170,	3171,	1445,	298,	1430,	1431,	297
776,	3170,	1521,	1522,	3171,	1430,	288,	289,	1431
777,	1445,	3171,	3172,	1446,	297,	1431,	1432,	296
778,	3171,	1522,	1523,	3172,	1431,	289,	290,	1432
779,	1446,	3172,	3173,	1447,	296,	1432,	1433,	295
780,	3172,	1523,	1524,	3173,	1432,	290,	291,	1433
781,	1447,	3173,	3174,	1448,	295,	1433,	1434,	294
782,	3173,	1524,	1525,	3174,	1433,	291,	292,	1434
783,	1448,	3174,	1607,	317,	294,	1434,	293,	24
784,	3174,	1525,	349,	1607,	1434,	292,	23,	293
785,	337,	1597,	3175,	1449,	338,	1596,	3168,	1442
786,	1597,	351,	1526,	3175,	1596,	350,	1519,	3168
787,	1449,	3175,	3176,	1450,	1442,	3168,	3169,	1443
788,	3175,	1526,	1527,	3176,	3168,	1519,	1520,	3169
** ... 748 like lines cut
*Nset, nset=beam, generate
  1,  3783,   1
*Elset, elset=beam, generate
  1,  2304,   1
*Nset, nset=edge, UNSORTED
   35,   38,   42,   43,   45,   46,   49,  419,  420,  430,  431,  467,  468,  469,  470,  471
  472,  473,  474,  475,  476,  477,  518,  519,  520,  521,  522,  523,  524,  534,  535,  536
  537,  538,  539,  540,  571,  572,  573,  574,  575,  576,  577,  578,  579,  580,  581,  582
  583,  584,  585,  586,  587,  588,  589,  590,  591,  592,  600,  601,  602,  603,  604,  605
  606,  614,  615,  616,  617,  618,  619,  620,  649,  650,  651,  652,  653,  654,  655,  680
  681,  682,  683,  684,  685,  686,  697,  698,  699,  700, 1893, 1894, 1900, 1901, 1907, 1908
 1914, 1915, 1921, 1922, 1928, 1929, 1935, 1936, 1942, 1943, 1949, 1950, 1956, 1957, 1963, 1964
 2246, 2247, 2248, 2249, 2250, 2251, 2252, 2253, 2254, 2255, 2256, 2257, 2258, 2259, 2260, 2261
 2262, 2263, 2264, 2265, 2266, 2267, 2268, 2269, 2270, 2271, 2272, 2273, 2274, 2275, 2276, 2277
 2278, 2279, 2280, 2281, 2282, 2283, 2284, 2285, 2286, 2287, 2288, 2289, 2290, 2291, 2292, 2293
 2294, 2295, 2296, 2297, 2298, 2299, 2300, 2301, 2302, 2303, 2304, 2305, 2306, 2307, 2308, 2309
 2310, 2311, 2312, 2313, 2314, 2315, 2316, 2317, 2318, 2319, 2320, 2321, 2322, 2359, 2360, 2361
 2362, 2363, 2364, 2365, 2366, 2367, 2368, 2369, 2370, 2371, 2372, 2373, 2374, 2375, 2376, 2377
 2378, 2379, 2380, 2381, 2382, 2383, 2384, 2385, 2386, 2387, 2388, 2389, 2390, 2391, 2392, 2393
 2394, 2395, 2396, 2397, 2398, 2399, 2400, 2401, 2402, 2403, 2404, 2405, 2406, 2407, 2408, 2409
 2410, 2411, 2412, 2413, 2414, 2415, 2416, 2417, 2418, 2419, 2420, 2421, 2422, 2423, 2424, 2425
 2426, 2427, 2428, 2429, 2430, 2431, 2432, 2433, 2434, 2435, 2706, 2707, 2708, 2709, 2710, 2711
 2712, 2713, 2717, 2718, 2719, 2720, 2721, 2722, 2723, 2724, 2728, 2729, 2730, 2731, 2732, 2733
 2734, 2735, 2736, 2739, 2740, 2741, 2742, 2743, 2744, 2745, 2746, 2747, 2748, 2749, 2750, 2751
 2752, 2753, 2754, 2755, 2756, 2757, 2758, 2759, 2760, 2761, 2762, 2763, 2764, 2765, 2766, 2767
 2768, 2769, 2770, 2771, 2772, 2773, 2774, 2775, 2776, 2777, 2778, 2779, 2780, 2781, 2782
**==========================================================================
** Make the Dummy Mesh
**
*Element, type=C3D8, elset=ElDummy
3001,	106,	869,	2860,	715,	1,	53,	701,	68
3002,	869,	118,	792,	2860,	53,	2,	54,	701
3003,	715,	2860,	2861,	716,	68,	701,	702,	67
3004,	2860,	792,	793,	2861,	701,	54,	55,	702
3005,	716,	2861,	2862,	717,	67,	702,	703,	66
3006,	2861,	793,	794,	2862,	702,	55,	56,	703
3007,	717,	2862,	2863,	718,	66,	703,	704,	65
3008,	2862,	794,	795,	2863,	703,	56,	57,	704
3009,	718,	2863,	2864,	719,	65,	704,	705,	64
3010,	2863,	795,	796,	2864,	704,	57,	58,	705
3011,	719,	2864,	2865,	720,	64,	705,	706,	63
3012,	2864,	796,	797,	2865,	705,	58,	59,	706
3013,	720,	2865,	2866,	721,	63,	706,	707,	62
3014,	2865,	797,	798,	2866,	706,	59,	60,	707
3015,	721,	2866,	880,	85,	62,	707,	61,	4
3016,	2866,	798,	117,	880,	707,	60,	3,	61
3017,	105,	870,	2867,	722,	106,	869,	2860,	715
3018,	870,	119,	799,	2867,	869,	118,	792,	2860
3019,	722,	2867,	2868,	723,	715,	2860,	2861,	716
3020,	2867,	799,	800,	2868,	2860,	792,	793,	2861
** ... 2284 like lines cut
**
************************************************************************
**			MATERIAL DEFINITION
************************************************************************
**
** Material properties for the real material
**
*uel property,elset=beam
<Gshear>,<Kbulk>,<Mx>,<My>,<Mz>,<nInt>
**
** Dummy mesh material properties
**
*Solid section, elset=ElDummy, material=Material-2
**
*Material, name=Material-1
*Elastic
1.e-20
*Conductivity
1.0
*Density
1.0
**
*Material, name=Material-2
*Elastic
1.e-20
*Density
2500.e-12
**
************************************************************************
**			INITIAL CONDITIONS
************************************************************************
**
**
*Initial conditions, type=field, variable=1
Nall,<magFieldVecX>
*Initial conditions, type=field, variable=2
Nall,<magFieldVecY>
*Initial conditions, type=field, variable=3
Nall,<magFieldVecZ>
*Initial conditions, type=field, variable=4
Nall,<magFieldMag>
**
************************************************************************
**			AMPLITUDE DEFINITION
************************************************************************
*Amplitude, name=magFieldMagAmp
0.0,0.0,1.,<magFieldMag>
**
************************************************************************
**			STEP DEFINITION
************************************************************************
*Step, Name=Deform, nlgeom=yes, inc=100000
*Static
0.2,1.,1.e-6,1.
*Controls, Parameters=Time Incrementation
,,,,,,,10,,,,,,
**
************************************************************************
**			BOUNDARY CONDITIONS
************************************************************************
** BOUNDARY CONDITIONS
** 
** Name: fix-edge Type: Symmetry/Antisymmetry/Encastre
*Boundary
edge, ENCASTRE
**
** define Dload to include gravity
*Dload
, GRAV, 10000, 0., 0., -1.
** ----------------------------------------------------------------
** 
*Field, variable=1
Nall,<magFieldVecX>
*Field, variable=2
Nall,<magFieldVecY>
*Field, variable=3
Nall,<magFieldVecZ>
*Field, variable=4, amplitude=magFieldMagAmp
Nall,1.0
**
**
*Output, field
*node output, nset=Nall
u
*element output, elset=ElDummy
le,ne
**
*End Step
