*Heading
** Job name: Job-1 Model name: Model-1
** Generated by: Abaqus/CAE 2020
*Preprint, echo=NO, model=NO, history=NO, contact=NO
**
** PARTS
**
*Part, name=Part-1
*Node
      1,           2.,           1.,           0.
      2,           2.,           1.,  0.200000003
      3,           5.,           1.,  0.200000003
      4,           5.,           1.,           0.
      5,           2.,          -1.,  0.200000003
      6,           5.,          -1.,  0.200000003
      7,           5.,          -1.,           0.
      8,           2.,          -1.,           0.
      9,          -1.,          -1.,  0.200000003
     10,          -1.,          -1.,           0.
     11,          -1.,           1.,           0.
     12,          -1.,           1.,  0.200000003
     13,          -7.,           1.,  0.200000003
     14,          -7.,          -1.,  0.200000003
     15,          -4.,          -1.,  0.200000003
     16,          -4.,           1.,  0.200000003
     17,          -7.,          -1.,           0.
     18,          -4.,          -1.,           0.
     19,          -4.,           1.,           0.
     20,          -7.,           1.,           0.
** ... 2944 like lines cut
*Element, type=C3D8R
  1,  106,  785, 2195,  477,    1,   25,  449,   54
  2,  785,  118,  631, 2195,   25,    2,   26,  449
  3,  477, 2195, 2196,  478,   54,  449,  450,   53
  4, 2195,  631,  632, 2196,  449,   26,   27,  450
  5,  478, 2196, 2197,  479,   53,  450,  451,   52
  6, 2196,  632,  633, 2197,  450,   27,   28,  451
  7,  479, 2197, 2198,  480,   52,  451,  452,   51
  8, 2197,  633,  634, 2198,  451,   28,   29,  452
  9,  480, 2198, 2199,  481,   51,  452,  453,   50
 10, 2198,  634,  635, 2199,  452,   29,   30,  453
 11,  481, 2199, 2200,  482,   50,  453,  454,   49
 12, 2199,  635,  636, 2200,  453,   30,   31,  454
 13,  482, 2200, 2201,  483,   49,  454,  455,   48
 14, 2200,  636,  637, 2201,  454,   31,   32,  455
 15,  483, 2201, 2202,  484,   48,  455,  456,   47
 16, 2201,  637,  638, 2202,  455,   32,   33,  456
 17,  484, 2202, 2203,  485,   47,  456,  457,   46
 18, 2202,  638,  639, 2203,  456,   33,   34,  457
 19,  485, 2203, 2204,  486,   46,  457,  458,   45
 20, 2203,  639,  640, 2204,  457,   34,   35,  458
** ... 1780 like lines cut
*Nset, nset=U4
    1,    2,    5,    8,    9,   10,   11,   12,   13,   14,   15,   16,   17,   18,   19,   20
   25,   55,   96,   97,   98,   99,  100,  101,  102,  103,  104,  105,  106,  118,  119,  120
  121,  122,  123,  124,  125,  126,  127,  128,  129,  130,  131,  132,  133,  134,  135,  136
  137,  138,  139,  140,  141,  142,  143,  144,  145,  146,  147,  148,  149,  150,  151,  152
  153,  154,  155,  156,  157,  158,  159,  160,  161,  162,  163,  164,  165,  166,  167,  168
  169,  170,  171,  172,  173,  174,  175,  176,  177,  178,  179,  180,  181,  182,  183,  184
  185,  186,  187,  188,  189,  190,  191,  192,  193,  194,  195,  196,  197,  198,  199,  200
  201,  202,  203,  204,  205,  206,  207,  208,  209,  210,  211,  212,  213,  214,  215,  216
  217,  218,  219,  220,  221,  222,  223,  224,  225,  226,  227,  228,  229,  230,  231,  232
  233,  234,  235,  236,  237,  238,  239,  240,  241,  242,  243,  244,  245,  246,  247,  248
  249,  250,  251,  252,  253,  254,  255,  256,  257,  258,  259,  260,  261,  262,  263,  264
  265,  266,  267,  268,  269,  270,  271,  272,  273,  274,  275,  276,  277,  278,  279,  280
  281,  282,  283,  284,  285,  286,  287,  288,  289,  290,  291,  292,  293,  294,  295,  296
  297,  298,  299,  300,  301,  302,  303,  304,  305,  306,  307,  308,  309,  310,  311,  312
  785,  786,  787,  788,  789,  790,  791,  792,  793,  794,  795,  807,  808,  809,  810,  811
  812,  813,  814,  815,  816,  817,  818,  819,  820,  821,  822,  823,  824,  825,  826,  827
  828,  829,  830,  831,  832,  833,  834,  835,  836,  837,  838,  839,  840,  841,  842,  843
  844,  845,  846,  847,  848,  849,  850,  851,  852,  853,  854,  855,  856,  857,  858,  859
  860,  861,  862,  863,  864,  865,  866,  867,  868,  869,  870,  871,  872,  873,  874,  875
  876,  877,  878,  879,  880,  881,  882,  883,  884,  885,  886,  887,  888,  889,  890,  891
** ... 58 like lines cut
*Elset, elset=U4, generate
  361,  1080,     1
*Nset, nset=U3
    1,    2,    3,    4,    5,    6,    7,    8,    9,   10,   11,   12,   13,   14,   15,   16
   17,   18,   19,   20,   21,   22,   23,   24,   25,   26,   27,   28,   29,   30,   31,   32
   33,   34,   35,   36,   37,   38,   39,   40,   41,   42,   43,   44,   45,   46,   47,   48
   49,   50,   51,   52,   53,   54,   55,   56,   57,   58,   59,   60,   61,   62,   63,   64
   65,   66,   67,   68,   69,   70,   71,   72,   73,   74,   75,   76,   77,   78,   79,   80
   81,   82,   83,   84,   85,   86,   87,   88,   89,   90,   91,   92,   93,   94,   95,   96
   97,   98,   99,  100,  101,  102,  103,  104,  105,  106,  107,  108,  109,  110,  111,  112
  113,  114,  115,  116,  117,  118,  119,  120,  121,  122,  123,  124,  125,  126,  127,  128
  129,  130,  131,  132,  133,  134,  135,  136,  137,  138,  139,  140,  141,  142,  143,  144
  145,  146,  147,  148,  149,  150,  151,  152,  209,  210,  211,  212,  213,  214,  215,  216
  217,  218,  219,  234,  235,  236,  237,  238,  239,  240,  241,  242,  243,  244,  259,  260
  261,  262,  263,  264,  265,  266,  267,  268,  269,  284,  285,  286,  287,  288,  289,  290
  291,  292,  293,  294,  309,  310,  311,  312,  313,  314,  315,  316,  317,  318,  319,  320
  321,  322,  323,  324,  325,  326,  327,  328,  329,  330,  331,  332,  333,  334,  335,  336
  337,  338,  339,  340,  341,  342,  343,  344,  345,  346,  347,  348,  349,  350,  351,  352
  353,  354,  355,  356,  357,  358,  359,  360,  361,  362,  363,  364,  365,  366,  367,  368
  369,  370,  371,  372,  373,  374,  375,  376,  377,  378,  379,  380,  381,  382,  383,  384
  385,  386,  387,  388,  389,  390,  391,  392,  393,  394,  395,  396,  397,  398,  399,  400
  401,  402,  403,  404,  405,  406,  407,  408,  409,  410,  411,  412,  413,  414,  415,  416
  417,  418,  419,  420,  421,  422,  423,  424,  425,  426,  427,  428,  429,  430,  431,  432
** ... 97 like lines cut
*Elset, elset=U3
    1,    2,    3,    4,    5,    6,    7,    8,    9,   10,   11,   12,   13,   14,   15,   16
   17,   18,   19,   20,   21,   22,   23,   24,   25,   26,   27,   28,   29,   30,   31,   32
   33,   34,   35,   36,   37,   38,   39,   40,   41,   42,   43,   44,   45,   46,   47,   48
   49,   50,   51,   52,   53,   54,   55,   56,   57,   58,   59,   60,   61,   62,   63,   64
   65,   66,   67,   68,   69,   70,   71,   72,   73,   74,   75,   76,   77,   78,   79,   80
   81,   82,   83,   84,   85,   86,   87,   88,   89,   90,   91,   92,   93,   94,   95,   96
   97,   98,   99,  100,  101,  102,  103,  104,  105,  106,  107,  108,  109,  110,  111,  112
  113,  114,  115,  116,  117,  118,  119,  120,  121,  122,  123,  124,  125,  126,  127,  128
  129,  130,  131,  132,  133,  134,  135,  136,  137,  138,  139,  140,  141,  142,  143,  144
  145,  146,  147,  148,  149,  150,  151,  152,  153,  154,  155,  156,  157,  158,  159,  160
  161,  162,  163,  164,  165,  166,  167,  168,  169,  170,  171,  172,  173,  174,  175,  176
  177,  178,  179,  180,  181,  182,  183,  184,  185,  186,  187,  188,  189,  190,  191,  192
  193,  194,  195,  196,  197,  198,  199,  200,  201,  202,  203,  204,  205,  206,  207,  208
  209,  210,  211,  212,  213,  214,  215,  216,  217,  218,  219,  220,  221,  222,  223,  224
  225,  226,  227,  228,  229,  230,  231,  232,  233,  234,  235,  236,  237,  238,  239,  240
  241,  242,  243,  244,  245,  246,  247,  248,  249,  250,  251,  252,  253,  254,  255,  256
  257,  258,  259,  260,  261,  262,  263,  264,  265,  266,  267,  268,  269,  270,  271,  272
  273,  274,  275,  276,  277,  278,  279,  280,  281,  282,  283,  284,  285,  286,  287,  288
  289,  290,  291,  292,  293,  294,  295,  296,  297,  298,  299,  300,  301,  302,  303,  304
  305,  306,  307,  308,  309,  310,  311,  312,  313,  314,  315,  316,  317,  318,  319,  320
** ... 48 like lines cut
*Nset, nset=edge
   21,   22,   23,   24,  327,  356,  371,  372,  373,  374,  375,  376,  377,  378,  379,  380
  381,  382,  383,  384,  385,  386,  387,  388,  389,  390,  391,  392, 1848, 1849, 1850, 1851
 1852, 1853, 1854, 1855, 1856, 1857, 1858
*End Part
**  
**
** ASSEMBLY
**
*Assembly, name=Assembly
**  
*Instance, name=Part-1-1, part=Part-1
*End Instance
**  
*End Assembly
** 
** MATERIALS
** 
*Material, name=Material-1
*Density
0.,
** 
** BOUNDARY CONDITIONS
** 
** Name: BC-1 Type: Symmetry/Antisymmetry/Encastre
*Boundary
Part-1-1.edge, ENCASTRE
