*Heading
** Job name: Job-4 Model name: Model-1
** Generated by: Abaqus/CAE 2020
*Preprint, echo=NO, model=NO, history=NO, contact=NO
**
** PARTS
**
*Part, name=Part-1
*Node
      1,           0.,          -2.,           0.
      2,           0.,          -2.,  0.200000003
      3,           2.,          -2.,  0.200000003
      4,           2.,          -2.,           0.
      5,           0.,          -5.,  0.200000003
      6,           5.,          -5.,  0.200000003
      7,           5.,          -5.,           0.
      8,           0.,          -5.,           0.
      9,           0.,           2.,  0.200000003
     10,           0.,           2.,           0.
     11,           2.,           2.,           0.
     12,           2.,           2.,  0.200000003
     13,           0.,           5.,           0.
     14,           5.,           5.,           0.
     15,           5.,           5.,  0.200000003
     16,           0.,           5.,  0.200000003
     17,          -2.,           0.,           0.
     18,          -5.,           0.,           0.
     19,          -5.,           5.,           0.
     20,          -2.,           2.,           0.
** ... 2060 like lines cut
*Element, type=C3D8IH
  1,  90, 102, 596, 497,   1,   2,  33,  50
  2, 497, 596, 597, 498,  50,  33,  34,  49
  3, 498, 597, 598, 499,  49,  34,  35,  48
  4, 499, 598, 599, 500,  48,  35,  36,  47
  5, 500, 599, 600, 501,  47,  36,  37,  46
  6, 501, 600, 601, 502,  46,  37,  38,  45
  7, 502, 601, 602, 503,  45,  38,  39,  44
  8, 503, 602, 603, 504,  44,  39,  40,  43
  9, 504, 603, 604, 505,  43,  40,  41,  42
 10, 505, 604, 101,  69,  42,  41,   3,   4
 11,  89, 103, 605, 506,  90, 102, 596, 497
 12, 506, 605, 606, 507, 497, 596, 597, 498
 13, 507, 606, 607, 508, 498, 597, 598, 499
 14, 508, 607, 608, 509, 499, 598, 599, 500
 15, 509, 608, 609, 510, 500, 599, 600, 501
 16, 510, 609, 610, 511, 501, 600, 601, 502
 17, 511, 610, 611, 512, 502, 601, 602, 503
 18, 512, 611, 612, 513, 503, 602, 603, 504
 19, 513, 612, 613, 514, 504, 603, 604, 505
 20, 514, 613, 100,  70, 505, 604, 101,  69
** ... 940 like lines cut
*Nset, nset=Set-1, generate
    1,  2080,     1
*Elset, elset=Set-1, generate
   1,  960,    1
*Nset, nset=edge
  11,  12,  14,  15,  29,  30,  31,  32, 149, 150, 151, 152, 153, 154, 155, 156
 157, 158, 159, 171, 172, 173, 174, 175, 176, 177, 178, 179, 180, 181, 439, 440
 441, 442, 443, 444, 445, 446, 447, 448, 449, 450, 451, 452, 453, 454, 455, 456
 457, 458, 459, 460
*Elset, elset=edge
 130, 140, 150, 160, 170, 180, 190, 200, 210, 220, 230, 240, 370, 380, 390, 400
 410, 420, 430, 440, 450, 460, 470, 480, 730, 740, 750, 760, 770, 780, 790, 800
 810, 820, 830, 840, 841, 842, 843, 844, 845, 846, 847, 848, 849, 850, 851, 852
*Elset, elset=edge1
 130, 140, 150, 160, 170, 180, 190, 200, 210, 220, 230, 240, 370, 380, 390, 400
 410, 420, 430, 440, 450, 460, 470, 480, 730, 740, 750, 760, 770, 780, 790, 800
 810, 820, 830, 840, 841, 842, 843, 844, 845, 846, 847, 848, 849, 850, 851, 852
*Nset, nset=edge_encastle
 14, 15, 31, 32
*Nset, nset=edge_ZYMM
  31,  32, 151, 152, 153, 154, 155, 156, 157, 158, 159, 171, 172, 173, 174, 175
 176, 177, 178, 179, 441, 442, 443, 444, 445, 446, 447, 448, 449, 450, 451, 452
 453, 454, 455, 456, 457, 458
** Section: Section-1
*Solid Section, elset=Set-1, material=Material-1
,
*End Part
**  
**
** ASSEMBLY
**
*Assembly, name=Assembly
**  
*Instance, name=Part-1-1, part=Part-1
*End Instance
**  
*Nset, nset=Bound_nodes, instance=Part-1-1
 14, 15, 31, 32
*Elset, elset=U3, instance=Part-1-1, generate
 361,  600,    1
*Elset, elset=U4, instance=Part-1-1
 121, 122, 123, 124, 125, 126, 127, 128, 129, 130, 131, 132, 133, 134, 135, 136
 137, 138, 139, 140, 141, 142, 143, 144, 145, 146, 147, 148, 149, 150, 151, 152
 153, 154, 155, 156, 157, 158, 159, 160, 161, 162, 163, 164, 165, 166, 167, 168
 169, 170, 171, 172, 173, 174, 175, 176, 177, 178, 179, 180, 181, 182, 183, 184
 185, 186, 187, 188, 189, 190, 191, 192, 193, 194, 195, 196, 197, 198, 199, 200
 201, 202, 203, 204, 205, 206, 207, 208, 209, 210, 211, 212, 213, 214, 215, 216
 217, 218, 219, 220, 221, 222, 223, 224, 225, 226, 227, 228, 229, 230, 231, 232
 233, 234, 235, 236, 237, 238, 239, 240, 601, 602, 603, 604, 605, 606, 607, 608
 609, 610, 611, 612, 613, 614, 615, 616, 617, 618, 619, 620, 621, 622, 623, 624
 625, 626, 627, 628, 629, 630, 631, 632, 633, 634, 635, 636, 637, 638, 639, 640
 641, 642, 643, 644, 645, 646, 647, 648, 649, 650, 651, 652, 653, 654, 655, 656
 657, 658, 659, 660, 661, 662, 663, 664, 665, 666, 667, 668, 669, 670, 671, 672
 673, 674, 675, 676, 677, 678, 679, 680, 681, 682, 683, 684, 685, 686, 687, 688
 689, 690, 691, 692, 693, 694, 695, 696, 697, 698, 699, 700, 701, 702, 703, 704
 705, 706, 707, 708, 709, 710, 711, 712, 713, 714, 715, 716, 717, 718, 719, 720
*Elset, elset=U5, instance=Part-1-1
 241, 242, 243, 244, 245, 246, 247, 248, 249, 250, 251, 252, 253, 254, 255, 256
 257, 258, 259, 260, 261, 262, 263, 264, 265, 266, 267, 268, 269, 270, 271, 272
 273, 274, 275, 276, 277, 278, 279, 280, 281, 282, 283, 284, 285, 286, 287, 288
 289, 290, 291, 292, 293, 294, 295, 296, 297, 298, 299, 300, 301, 302, 303, 304
 305, 306, 307, 308, 309, 310, 311, 312, 313, 314, 315, 316, 317, 318, 319, 320
 321, 322, 323, 324, 325, 326, 327, 328, 329, 330, 331, 332, 333, 334, 335, 336
 337, 338, 339, 340, 341, 342, 343, 344, 345, 346, 347, 348, 349, 350, 351, 352
 353, 354, 355, 356, 357, 358, 359, 360, 841, 842, 843, 844, 845, 846, 847, 848
 849, 850, 851, 852, 853, 854, 855, 856, 857, 858, 859, 860, 861, 862, 863, 864
 865, 866, 867, 868, 869, 870, 871, 872, 873, 874, 875, 876, 877, 878, 879, 880
 881, 882, 883, 884, 885, 886, 887, 888, 889, 890, 891, 892, 893, 894, 895, 896
 897, 898, 899, 900, 901, 902, 903, 904, 905, 906, 907, 908, 909, 910, 911, 912
 913, 914, 915, 916, 917, 918, 919, 920, 921, 922, 923, 924, 925, 926, 927, 928
 929, 930, 931, 932, 933, 934, 935, 936, 937, 938, 939, 940, 941, 942, 943, 944
 945, 946, 947, 948, 949, 950, 951, 952, 953, 954, 955, 956, 957, 958, 959, 960
*Elset, elset=U6, instance=Part-1-1
   1,   2,   3,   4,   5,   6,   7,   8,   9,  10,  11,  12,  13,  14,  15,  16
  17,  18,  19,  20,  21,  22,  23,  24,  25,  26,  27,  28,  29,  30,  31,  32
  33,  34,  35,  36,  37,  38,  39,  40,  41,  42,  43,  44,  45,  46,  47,  48
  49,  50,  51,  52,  53,  54,  55,  56,  57,  58,  59,  60,  61,  62,  63,  64
  65,  66,  67,  68,  69,  70,  71,  72,  73,  74,  75,  76,  77,  78,  79,  80
  81,  82,  83,  84,  85,  86,  87,  88,  89,  90,  91,  92,  93,  94,  95,  96
  97,  98,  99, 100, 101, 102, 103, 104, 105, 106, 107, 108, 109, 110, 111, 112
 113, 114, 115, 116, 117, 118, 119, 120, 721, 722, 723, 724, 725, 726, 727, 728
 729, 730, 731, 732, 733, 734, 735, 736, 737, 738, 739, 740, 741, 742, 743, 744
 745, 746, 747, 748, 749, 750, 751, 752, 753, 754, 755, 756, 757, 758, 759, 760
 761, 762, 763, 764, 765, 766, 767, 768, 769, 770, 771, 772, 773, 774, 775, 776
 777, 778, 779, 780, 781, 782, 783, 784, 785, 786, 787, 788, 789, 790, 791, 792
 793, 794, 795, 796, 797, 798, 799, 800, 801, 802, 803, 804, 805, 806, 807, 808
 809, 810, 811, 812, 813, 814, 815, 816, 817, 818, 819, 820, 821, 822, 823, 824
 825, 826, 827, 828, 829, 830, 831, 832, 833, 834, 835, 836, 837, 838, 839, 840
*Elset, elset=edge_element, instance=Part-1-1
 130, 140, 150, 160, 170, 180, 190, 200, 210, 220, 230, 240, 370, 380, 390, 400
 410, 420, 430, 440, 450, 460, 470, 480, 730, 740, 750, 760, 770, 780, 790, 800
 810, 820, 830, 840, 841, 842, 843, 844, 845, 846, 847, 848, 849, 850, 851, 852
*End Assembly
** 
** MATERIALS
** 
*Material, name=Material-1
*Density
78.,
** 
** BOUNDARY CONDITIONS
** 
** Name: BC-1 Type: Symmetry/Antisymmetry/Encastre
*Boundary
Part-1-1.edge, ENCASTRE
** ----------------------------------------------------------------
** 
** STEP: Step-1
** 
*Step, name=Step-1, nlgeom=NO
*Static
1., 1., 1e-05, 1.
** 
** BOUNDARY CONDITIONS
** 
** Name: BC-1 Type: Symmetry/Antisymmetry/Encastre
*Boundary, op=NEW
** 
** OUTPUT REQUESTS
** 
*Restart, write, frequency=0
** 
** FIELD OUTPUT: F-Output-1
** 
*Output, field, variable=PRESELECT
** 
** HISTORY OUTPUT: H-Output-1
** 
*Output, history, variable=PRESELECT
*End Step
