*Heading
** Job name: Job-1 Model name: Model-1
** Generated by: Abaqus/CAE 2020
*Preprint, echo=NO, model=NO, history=NO, contact=NO
**
** PARTS
**
*Part, name=Part-1
*Node
      1,         -1.5,           6.,  0.200000003
      2,         -1.5,           6.,           0.
      3,          -3.,           6.,           0.
      4,          -3.,           6.,  0.200000003
      5,         -1.5,           3.,  0.200000003
      6,         -1.5,           3.,           0.
      7,          -3.,           3.,  0.200000003
      8,        -2.25,         2.25,  0.200000003
      9,          -3.,           3.,           0.
     10,        -2.25,         2.25,           0.
     11,          -6.,           6.,  0.200000003
     12,          -6.,           6.,           0.
     13,           0.,           6.,           0.
     14,           0.,           6.,  0.200000003
     15,         -7.5,          7.5,           0.
     16,           0.,          7.5,           0.
     17,           0.,          7.5,  0.200000003
     18,         -7.5,          7.5,  0.200000003
     19,           6.,           6.,  0.200000003
     20,           3.,           6.,  0.200000003
** ... 2740 like lines cut
*Element, type=C3D8R
 1,  852,  853, 2239, 2236,  123,  124,  846,  845
 2,  853,  854, 2240, 2239,  124,  125,  847,  846
 3,  854,  127,  850, 2240,  125,    1,  126,  847
 4,  855,  856, 2234, 2233,  852,  853, 2239, 2236
 5,  856,  857, 2235, 2234,  853,  854, 2240, 2239
 6,  857,  128,  851, 2235,  854,  127,  850, 2240
 7,  850,  134,  862, 2240,  126,    2,  129,  847
 8, 2240,  862,  863, 2239,  847,  129,  130,  846
 9, 2239,  863,  864, 2236,  846,  130,  131,  845
10,  851,  135,  865, 2235,  850,  134,  862, 2240
11, 2235,  865,  866, 2234, 2240,  862,  863, 2239
12, 2234,  866,  867, 2233, 2239,  863,  864, 2236
13,  864,  868, 2241, 2236,  131,  132,  848,  845
14,  868,  869, 2242, 2241,  132,  133,  849,  848
15,  869,  137,  872, 2242,  133,    3,  136,  849
16,  867,  870, 2238, 2233,  864,  868, 2241, 2236
17,  870,  871, 2237, 2238,  868,  869, 2242, 2241
18,  871,  138,  873, 2237,  869,  137,  872, 2242
19,  872,  139,  858, 2242,  136,    4,  121,  849
20, 2242,  858,  859, 2241,  849,  121,  122,  848
** ... 1580 like lines cut
*Nset, nset=U3_x
    1,    2,    3,    4,    5,    6,    8,   10,   11,   12,   13,   14,   15,   16,   17,   18
   27,   28,   29,   30,   31,   32,   33,   34,   35,   36,   45,   46,   47,   48,   49,   50
   51,   52,   53,   54,   55,   57,   59,   60,   61,   62,   63,   64,   65,   66,   91,   92
   93,   94,   95,   96,  105,  106,  109,  110,  112,  114,  115,  116,  117,  118,  119,  120
  121,  122,  123,  124,  125,  126,  129,  130,  131,  132,  133,  136,  141,  142,  143,  144
  145,  146,  147,  152,  156,  157,  158,  159,  160,  161,  162,  163,  164,  165,  166,  167
  168,  169,  170,  171,  172,  173,  174,  175,  176,  177,  178,  179,  180,  181,  182,  183
  184,  185,  186,  187,  188,  189,  190,  191,  192,  193,  194,  195,  196,  197,  198,  199
  200,  201,  202,  203,  204,  205,  206,  207,  208,  209,  210,  211,  212,  213,  274,  275
  276,  277,  278,  279,  280,  281,  282,  283,  284,  285,  286,  287,  288,  289,  290,  291
  292,  293,  294,  295,  296,  297,  298,  299,  300,  301,  302,  303,  304,  305,  306,  307
  308,  395,  398,  399,  400,  401,  402,  403,  404,  405,  406,  407,  408,  417,  418,  419
  420,  421,  422,  425,  426,  427,  428,  429,  432,  437,  438,  439,  440,  441,  442,  443
  447,  452,  453,  454,  455,  456,  457,  458,  459,  460,  461,  462,  463,  464,  465,  466
  467,  468,  469,  470,  471,  472,  473,  474,  475,  476,  477,  478,  479,  480,  481,  482
  483,  484,  485,  486,  487,  488,  489,  490,  491,  492,  493,  494,  495,  496,  497,  498
  499,  500,  501,  502,  503,  504,  505,  506,  507,  508,  509,  714,  715,  716,  717,  718
  719,  720,  721,  722,  723,  724,  725,  726,  727,  728,  729,  730,  731,  732,  772,  773
  774,  775,  776,  778,  779,  780,  781,  787,  794,  800,  801,  802,  803,  804,  805,  810
  817,  818,  819,  820,  821,  822,  823,  824,  825,  826,  827,  828,  829,  830,  831,  832
** ... 33 like lines cut
*Elset, elset=U3_x
   39,   40,   41,   42,   43,   44,   45,   46,   47,   48,   49,   50,   51,   52,   53,   54
   55,   56,   57,   58,   59,   60,   61,   62,   63,   64,   65,   66,   67,   68,   69,   70
   71,   72,   73,   74,   75,   76,   77,   78,   79,   80,   81,   82,   83,   84,   85,   86
   87,   88,   89,   90,   91,   92,   93,   94,   95,   96,   97,   98,   99,  100,  101,  102
  103,  104,  105,  106,  107,  108,  109,  110,  111,  112,  113,  114,  115,  116,  117,  118
  119,  120,  121,  122,  123,  124,  125,  126,  127,  128,  129,  130,  131,  132,  133,  134
  135,  136,  137,  138,  139,  140,  141,  142,  143,  144,  145,  146,  147,  148,  149,  150
  151,  152,  153,  154,  155,  156,  157,  158,  159,  160,  161,  162,  163,  164,  165,  166
  167,  168,  169,  170,  171,  172,  173,  174,  175,  176,  177,  178,  319,  320,  321,  322
  323,  324,  325,  326,  327,  328,  329,  330,  331,  332,  333,  334,  335,  336,  337,  338
  339,  340,  341,  342,  343,  344,  345,  346,  347,  348,  349,  350,  351,  352,  353,  354
  355,  356,  675,  676,  677,  678,  679,  680,  681,  682,  683,  684,  685,  686,  687,  688
  689,  690,  691,  692,  693,  694,  695,  696,  697,  698,  699,  700,  701,  702,  703,  704
  705,  706,  707,  708,  709,  710,  711,  712,  713,  714,  715,  716,  717,  718,  719,  720
  721,  722,  723,  724,  725,  726,  727,  728,  729,  730,  731,  732,  733,  734,  735,  736
  737,  738,  739,  740,  741,  742,  743,  744,  745,  746,  747,  748,  749,  750,  751,  752
  753,  754,  755,  756,  757,  758,  759,  760,  761,  762,  763,  764,  765,  766,  767,  768
  769,  770,  771,  772,  773,  774,  775,  776,  777,  778,  779,  780,  781,  782,  783,  784
  785,  786,  787,  788,  789,  790,  791,  792,  793,  794,  795,  796,  797,  798,  799,  800
  801,  802,  803,  804,  805,  806,  807,  808,  809,  810,  811,  812,  813,  814, 1333, 1334
** ... 5 like lines cut
*Nset, nset=U4_y
    1,    2,    3,    4,    5,    6,    7,    8,    9,   10,   20,   21,   23,   24,   27,   28
   29,   30,   33,   34,   35,   36,   37,   38,   39,   40,   41,   42,   43,   44,   55,   57
   59,   60,   65,   66,   77,   78,   79,   80,   81,   82,   83,   84,   85,   86,   87,   88
   89,   90,   91,   92,   99,  100,  101,  102,  103,  104,  111,  112,  113,  114,  115,  116
  121,  122,  123,  124,  125,  126,  127,  128,  129,  130,  131,  132,  133,  134,  135,  136
  137,  138,  139,  140,  141,  142,  143,  144,  145,  146,  147,  148,  149,  150,  151,  152
  153,  154,  155,  218,  224,  225,  226,  227,  228,  229,  230,  231,  232,  233,  234,  274
  275,  276,  277,  281,  282,  283,  287,  297,  298,  299,  300,  301,  302,  303,  304,  305
  306,  307,  308,  309,  310,  311,  312,  313,  314,  315,  316,  317,  318,  319,  320,  321
  322,  323,  324,  325,  326,  327,  328,  329,  330,  331,  332,  333,  334,  335,  336,  337
  338,  339,  340,  341,  342,  343,  344,  345,  346,  347,  348,  349,  350,  351,  352,  353
  354,  355,  356,  357,  358,  359,  360,  361,  362,  363,  364,  365,  366,  447,  460,  493
  494,  495,  496,  497,  498,  499,  500,  501,  595,  613,  627,  628,  629,  630,  631,  632
  633,  634,  635,  636,  637,  638,  639,  640,  645,  650,  651,  652,  653,  654,  655,  656
  657,  658,  659,  660,  661,  662,  663,  664,  665,  666,  667,  668,  669,  670,  671,  672
  673,  674,  675,  676,  677,  678,  679,  680,  681,  682,  683,  684,  685,  686,  687,  688
  689,  690,  691,  692,  693,  694,  695,  696,  697,  698,  699,  700,  701,  702,  703,  704
  705,  706,  707,  708,  709,  710,  711,  712,  713,  714,  715,  716,  717,  718,  752,  753
  754,  755,  756,  757,  758,  759,  760,  761,  762,  763,  764,  765,  766,  767,  768,  769
  770,  790,  791,  792,  793,  794,  795,  796,  797,  798,  799,  800,  801,  802,  803,  804
** ... 33 like lines cut
*Elset, elset=U4_y
    1,    2,    3,    4,    5,    6,    7,    8,    9,   10,   11,   12,   13,   14,   15,   16
   17,   18,   19,   20,   21,   22,   23,   24,   25,   26,   27,   28,   29,   30,   31,   32
   33,   34,   35,   36,   37,   38,  357,  358,  359,  360,  361,  362,  363,  364,  365,  366
  367,  368,  369,  370,  371,  372,  373,  374,  375,  376,  377,  378,  379,  380,  381,  382
  383,  384,  385,  386,  387,  388,  389,  390,  391,  392,  393,  394,  395,  396,  397,  398
  399,  400,  401,  402,  403,  404,  405,  406,  407,  408,  409,  410,  411,  412,  413,  414
  415,  416,  417,  418,  419,  420,  421,  422,  423,  424,  425,  426,  427,  428,  429,  430
  431,  432,  433,  434,  435,  436,  437,  438,  439,  440,  441,  442,  443,  444,  445,  446
  447,  448,  449,  450,  451,  452,  453,  454,  455,  456,  457,  458,  459,  460,  461,  462
  463,  464,  465,  466,  467,  468,  469,  470,  471,  472,  473,  474,  475,  476,  477,  478
  479,  480,  481,  482,  483,  484,  485,  486,  487,  488,  489,  490,  491,  492,  493,  494
  495,  496, 1171, 1172, 1173, 1174, 1175, 1176, 1177, 1178, 1179, 1180, 1181, 1182, 1183, 1184
 1185, 1186, 1187, 1188, 1189, 1190, 1191, 1192, 1193, 1194, 1195, 1196, 1197, 1198, 1199, 1200
 1201, 1202, 1203, 1204, 1205, 1206, 1207, 1208, 1209, 1210, 1211, 1212, 1213, 1214, 1215, 1216
 1217, 1218, 1219, 1220, 1221, 1222, 1223, 1224, 1225, 1226, 1227, 1228, 1229, 1230, 1231, 1232
 1233, 1234, 1235, 1236, 1237, 1238, 1239, 1240, 1241, 1242, 1243, 1244, 1245, 1246, 1247, 1248
 1249, 1250, 1251, 1252, 1253, 1254, 1255, 1256, 1257, 1258, 1259, 1260, 1261, 1262, 1263, 1264
 1265, 1266, 1267, 1268, 1269, 1270, 1271, 1272, 1273, 1274, 1275, 1276, 1277, 1278, 1279, 1280
 1281, 1282, 1283, 1284, 1285, 1286, 1287, 1288, 1289, 1290, 1291, 1292, 1293, 1294, 1295, 1296
 1297, 1298, 1299, 1300, 1301, 1302, 1303, 1304, 1305, 1306, 1307, 1308, 1309, 1310, 1311, 1312
** ... 5 like lines cut
*Nset, nset=U5_nx
    7,    8,    9,   10,   13,   14,   16,   17,   19,   20,   21,   22,   23,   24,   25,   26
   27,   28,   39,   40,   42,   43,   55,   56,   57,   58,   61,   62,   63,   64,   67,   68
   69,   70,   71,   72,   73,   74,   75,   76,   81,   82,   83,   84,   85,   86,   93,   94
   95,   96,   97,   98,   99,  100,  105,  106,  107,  108,  109,  110,  111,  112,  113,  114
  148,  149,  150,  151,  152,  153,  154,  155,  165,  184,  198,  199,  200,  201,  206,  207
  208,  209,  214,  215,  216,  217,  218,  219,  220,  221,  222,  223,  224,  225,  226,  227
  228,  229,  230,  231,  232,  233,  234,  235,  236,  237,  238,  239,  240,  241,  242,  243
  244,  245,  246,  247,  248,  249,  250,  251,  252,  253,  254,  255,  256,  257,  258,  259
  260,  261,  262,  263,  264,  265,  266,  267,  268,  269,  270,  271,  272,  273,  277,  322
  337,  351,  352,  353,  354,  359,  360,  361,  362,  444,  445,  446,  447,  448,  449,  450
  451,  461,  479,  502,  503,  504,  505,  506,  507,  508,  509,  510,  511,  512,  513,  514
  515,  516,  517,  518,  519,  520,  521,  522,  523,  524,  525,  526,  527,  528,  529,  530
  531,  532,  533,  534,  535,  536,  537,  538,  539,  540,  541,  542,  543,  544,  545,  546
  547,  548,  549,  550,  551,  552,  553,  554,  555,  556,  557,  558,  559,  560,  561,  562
  563,  564,  565,  566,  567,  568,  569,  570,  571,  572,  573,  574,  575,  576,  577,  578
  579,  580,  581,  582,  583,  584,  585,  586,  635,  636,  637,  638,  639,  640,  641,  642
  643,  644,  645,  646,  647,  648,  649,  650,  651,  652,  653,  654,  655,  656,  657,  658
  659,  660,  661,  723,  724,  725,  726,  727,  728,  729,  730,  731,  732,  733,  734,  735
  736,  737,  738,  743,  748,  749,  750,  751,  752,  753,  754,  755,  756,  771,  772,  773
  774,  775,  776,  777,  778,  779,  780,  781,  782,  783,  784,  785,  786,  787,  788,  789
** ... 33 like lines cut
*Elset, elset=U5_nx
  179,  180,  181,  182,  183,  184,  185,  186,  187,  188,  189,  190,  191,  192,  193,  194
  195,  196,  197,  198,  199,  200,  201,  202,  203,  204,  205,  206,  207,  208,  209,  210
  211,  212,  213,  214,  215,  216,  217,  218,  219,  220,  221,  222,  223,  224,  225,  226
  227,  228,  229,  230,  231,  232,  233,  234,  235,  236,  237,  238,  239,  240,  241,  242
  243,  244,  245,  246,  247,  248,  249,  250,  251,  252,  253,  254,  255,  256,  257,  258
  259,  260,  261,  262,  263,  264,  265,  266,  267,  268,  269,  270,  271,  272,  273,  274
  275,  276,  277,  278,  279,  280,  281,  282,  283,  284,  285,  286,  287,  288,  289,  290
  291,  292,  293,  294,  295,  296,  297,  298,  299,  300,  301,  302,  303,  304,  305,  306
  307,  308,  309,  310,  311,  312,  313,  314,  315,  316,  317,  318,  815,  816,  817,  818
  819,  820,  821,  822,  823,  824,  825,  826,  827,  828,  829,  830,  831,  832,  833,  834
  835,  836,  837,  838,  839,  840,  841,  842,  843,  844,  845,  846,  847,  848,  849,  850
  851,  852,  853,  854,  855,  856,  857,  858,  859,  860,  861,  862,  863,  864,  865,  866
  867,  868,  869,  870,  871,  872,  873,  874,  875,  876,  877,  878,  879,  880,  881,  882
  883,  884,  885,  886,  887,  888,  889,  890,  891,  892,  893,  894,  895,  896,  897,  898
  899,  900,  901,  902,  903,  904,  905,  906,  907,  908,  909,  910,  911,  912,  913,  914
  915,  916,  917,  918,  919,  920,  921,  922,  923,  924,  925,  926,  927,  928,  929,  930
  931,  932,  933,  934,  935,  936,  937,  938,  939,  940,  941,  942,  943,  944,  945,  946
  947,  948,  949,  950,  951,  952,  953,  954,  955,  956,  957,  958,  959,  960,  961,  962
  963,  964,  965,  966,  967,  968,  969,  970,  971,  972,  973,  974,  975,  976,  977,  978
  979,  980,  981,  982,  983,  984,  985,  986,  987,  988,  989,  990,  991,  992, 1133, 1134
** ... 5 like lines cut
*Nset, nset=U6_ny
    8,   10,   11,   12,   15,   18,   19,   22,   25,   26,   27,   28,   31,   32,   37,   38
   41,   44,   45,   46,   47,   48,   49,   50,   51,   52,   53,   54,   55,   56,   57,   58
   67,   68,   69,   70,   71,   72,   73,   74,   75,   76,   77,   78,   79,   80,   87,   88
   89,   90,   97,   98,  101,  102,  103,  104,  107,  108,  112,  114,  117,  118,  119,  120
  152,  156,  170,  202,  203,  204,  205,  210,  211,  212,  213,  223,  265,  266,  267,  268
  269,  270,  271,  272,  273,  277,  278,  279,  280,  284,  285,  286,  292,  309,  323,  355
  356,  357,  358,  363,  364,  365,  366,  367,  368,  369,  370,  371,  372,  373,  374,  375
  376,  377,  378,  379,  380,  381,  382,  383,  384,  385,  386,  387,  388,  389,  390,  391
  392,  393,  394,  395,  396,  397,  398,  399,  400,  401,  402,  403,  404,  405,  406,  407
  408,  409,  410,  411,  412,  413,  414,  415,  416,  417,  418,  419,  420,  421,  422,  423
  424,  425,  426,  427,  428,  429,  430,  431,  432,  433,  434,  435,  436,  437,  438,  439
  440,  441,  442,  443,  444,  445,  446,  447,  448,  449,  450,  451,  538,  541,  542,  543
  544,  545,  546,  547,  548,  549,  550,  551,  560,  561,  562,  563,  564,  565,  568,  569
  570,  571,  572,  575,  580,  581,  582,  583,  584,  585,  586,  587,  588,  589,  590,  591
  592,  593,  594,  595,  596,  597,  598,  599,  600,  601,  602,  603,  604,  605,  606,  607
  608,  609,  610,  611,  612,  613,  614,  615,  616,  617,  618,  619,  620,  621,  622,  623
  624,  625,  626,  627,  628,  629,  630,  631,  632,  633,  634,  700,  701,  702,  703,  704
  706,  708,  709,  710,  711,  733,  734,  735,  736,  737,  738,  739,  740,  741,  742,  743
  744,  745,  746,  747,  757,  758,  759,  760,  761,  763,  765,  766,  767,  768,  782,  783
  784,  785,  786,  794,  813,  814,  815,  816,  817,  818,  819,  820,  821,  822,  823,  826
** ... 33 like lines cut
*Elset, elset=U6_ny
  497,  498,  499,  500,  501,  502,  503,  504,  505,  506,  507,  508,  509,  510,  511,  512
  513,  514,  515,  516,  517,  518,  519,  520,  521,  522,  523,  524,  525,  526,  527,  528
  529,  530,  531,  532,  533,  534,  535,  536,  537,  538,  539,  540,  541,  542,  543,  544
  545,  546,  547,  548,  549,  550,  551,  552,  553,  554,  555,  556,  557,  558,  559,  560
  561,  562,  563,  564,  565,  566,  567,  568,  569,  570,  571,  572,  573,  574,  575,  576
  577,  578,  579,  580,  581,  582,  583,  584,  585,  586,  587,  588,  589,  590,  591,  592
  593,  594,  595,  596,  597,  598,  599,  600,  601,  602,  603,  604,  605,  606,  607,  608
  609,  610,  611,  612,  613,  614,  615,  616,  617,  618,  619,  620,  621,  622,  623,  624
  625,  626,  627,  628,  629,  630,  631,  632,  633,  634,  635,  636,  637,  638,  639,  640
  641,  642,  643,  644,  645,  646,  647,  648,  649,  650,  651,  652,  653,  654,  655,  656
  657,  658,  659,  660,  661,  662,  663,  664,  665,  666,  667,  668,  669,  670,  671,  672
  673,  674,  993,  994,  995,  996,  997,  998,  999, 1000, 1001, 1002, 1003, 1004, 1005, 1006
 1007, 1008, 1009, 1010, 1011, 1012, 1013, 1014, 1015, 1016, 1017, 1018, 1019, 1020, 1021, 1022
 1023, 1024, 1025, 1026, 1027, 1028, 1029, 1030, 1031, 1032, 1033, 1034, 1035, 1036, 1037, 1038
 1039, 1040, 1041, 1042, 1043, 1044, 1045, 1046, 1047, 1048, 1049, 1050, 1051, 1052, 1053, 1054
 1055, 1056, 1057, 1058, 1059, 1060, 1061, 1062, 1063, 1064, 1065, 1066, 1067, 1068, 1069, 1070
 1071, 1072, 1073, 1074, 1075, 1076, 1077, 1078, 1079, 1080, 1081, 1082, 1083, 1084, 1085, 1086
 1087, 1088, 1089, 1090, 1091, 1092, 1093, 1094, 1095, 1096, 1097, 1098, 1099, 1100, 1101, 1102
 1103, 1104, 1105, 1106, 1107, 1108, 1109, 1110, 1111, 1112, 1113, 1114, 1115, 1116, 1117, 1118
 1119, 1120, 1121, 1122, 1123, 1124, 1125, 1126, 1127, 1128, 1129, 1130, 1131, 1132, 1355, 1356
** ... 5 like lines cut
*Nset, nset=Set-9, generate
    1,  2760,     1
*Elset, elset=Set-9, generate
    1,  1600,     1
*Nset, nset=edge
 15, 25, 42, 65
** Section: Section-1
*Solid Section, elset=Set-9, material=Material-1
,
*End Part
**  
**
** ASSEMBLY
**
*Assembly, name=Assembly
**  
*Instance, name=Part-1-1, part=Part-1
*End Instance
**  
*End Assembly
** 
** MATERIALS
** 
*Material, name=Material-1
*Density
2.,
