*Heading
** Job name: Job-1 Model name: Model-1
** Generated by: Abaqus/CAE 2020
*Preprint, echo=NO, model=NO, history=NO, contact=NO
**
** PARTS
**
*Part, name=Part-1
*Node
      1,          -8.,         0.75,  0.200000003
      2,          -9.,         0.75,  0.200000003
      3,          -9.,        -0.75,  0.200000003
      4,          -8.,        -0.75,  0.200000003
      5,          -9.,         0.75,           0.
      6,          -9.,        -0.75,           0.
      7,          -8.,        -0.75,           0.
      8,          -8.,         0.75,           0.
      9,          -9.,          -2.,  0.200000003
     10,          -8.,          -2.,  0.200000003
     11,          -9.,          -2.,           0.
     12,          -8.,          -2.,           0.
     13,        -0.75,          -8.,           0.
     14,        -0.75,          -9.,           0.
     15,          -2.,          -9.,           0.
     16,          -2.,          -8.,           0.
     17,        -0.75,          -9.,  0.200000003
     18,          -2.,          -9.,  0.200000003
     19,          -2.,          -8.,  0.200000003
     20,        -0.75,          -8.,  0.200000003
** ... 1806 like lines cut
*Element, type=C3D8R
 1,   8,  84, 551,  90,   1,  73, 545,  82
 2,  84,  83, 552, 551,  73,  74, 546, 545
 3,  83,   5,  87, 552,  74,   2,  75, 546
 4,  90, 551, 553,  91,  82, 545, 547,  81
 5, 551, 552, 554, 553, 545, 546, 548, 547
 6, 552,  87,  86, 554, 546,  75,  76, 548
 7,  91, 553, 555,  92,  81, 547, 549,  80
 8, 553, 554, 556, 555, 547, 548, 550, 549
 9, 554,  86,  85, 556, 548,  76,  77, 550
10,  92, 555,  88,   7,  80, 549,  79,   4
11, 555, 556,  89,  88, 549, 550,  78,  79
12, 556,  85,   6,  89, 550,  77,   3,  78
13,   7,  88, 561, 103,   4,  79, 557,  98
14,  88,  89, 562, 561,  79,  78, 558, 557
15,  89,   6, 100, 562,  78,   3,  93, 558
16, 103, 561, 563, 104,  98, 557, 559,  97
17, 561, 562, 564, 563, 557, 558, 560, 559
18, 562, 100,  99, 564, 558,  93,  94, 560
19, 104, 563, 101,  12,  97, 559,  96,  10
20, 563, 564, 102, 101, 559, 560,  95,  96
** ... 800 like lines cut
*Nset, nset=Set-1, generate
    1,  1826,     1
*Elset, elset=Set-1, generate
   1,  820,    1
*Elset, elset=U3
   1,   2,   3,   4,   5,   6,   7,   8,   9,  10,  11,  12,  13,  14,  15,  16
  17,  18,  19,  20,  21,  22,  23,  24,  25,  26,  27,  28,  29,  30,  31,  32
  33,  34,  35,  36,  37,  38,  39,  40,  41,  42,  43,  44,  45,  46,  47,  48
  49,  50,  51,  52,  53,  54,  55,  56,  57,  58,  59,  60,  61,  62,  63,  64
  65,  66,  67,  68,  69,  70,  71,  72,  73,  74,  75,  76,  77,  78,  79,  80
  81,  82,  83,  84,  85,  86,  87,  88,  89,  90,  91,  92,  93,  94,  95,  96
  97,  98,  99, 100, 101, 102, 103, 104, 105, 106, 107, 108, 109, 110, 111, 112
 113, 114, 115, 116, 117, 118, 119, 120, 121, 122, 123, 124, 125, 126, 127, 128
 129, 130, 131, 132, 133, 134, 135, 136, 137, 138, 139, 140, 141, 142, 143, 144
 145, 146, 147, 148, 149, 150, 151, 152, 153, 154, 155, 156, 157, 158, 159, 160
 161, 162, 163, 164, 165, 166, 167, 168, 169, 170, 171, 172, 173, 174, 175, 176
 177, 178, 179, 180, 181, 182, 183, 184, 635, 636, 637, 638, 639, 640, 641, 642
 643, 644, 645, 646, 647, 648, 649, 650, 651, 652, 653, 654, 655, 656, 657, 658
 659, 660, 661, 812, 813, 814, 815, 816, 817, 818, 819, 820
*Elset, elset=U4, generate
 335,  484,    1
*Elset, elset=U5, generate
 662,  811,    1
*Elset, elset=U6, generate
 485,  634,    1
*Elset, elset=U7, generate
 185,  334,    1
*Elset, elset=_BondBase_S2, internal
  1,  2,  3,  4,  5,  6,  7,  8,  9, 10, 11, 12, 52, 53, 54, 55
 56, 57, 58, 59, 60, 61, 62, 63
*Elset, elset=_BondBase_S1, internal
 31, 32, 33, 34, 35, 36, 37, 38, 39, 40, 41, 42, 64, 65, 66, 67
 68, 69, 70, 71, 72, 73, 74, 75
*Surface, type=ELEMENT, name=BondBase
_BondBase_S2, S2
_BondBase_S1, S1
*Elset, elset=_contbase_S1, internal
   1,   2,   3,   4,   5,   6,   7,   8,   9,  10,  11,  12,  31,  32,  33,  34
  35,  36,  37,  38,  39,  40,  41,  42,  52,  53,  54,  55,  56,  57,  58,  59
  60,  61,  62,  63,  64,  65,  66,  67,  68,  69,  70,  71,  72,  73,  74,  75
  88,  89,  90,  91,  98,  99, 100, 101, 108, 109, 110, 111, 115, 116, 117, 118
 119, 120, 121, 122, 123, 124, 125, 126, 127, 128, 129, 130, 131, 132, 133, 134
 135, 136, 137, 138, 139, 140, 141, 142, 143, 144, 145, 146, 147, 148, 149, 150
 151, 152, 153, 154, 158, 159, 160, 161, 168, 169, 170, 171, 178, 179, 180, 181
*Elset, elset=_contbase_S2, internal
   1,   2,   3,   4,   5,   6,   7,   8,   9,  10,  11,  12,  31,  32,  33,  34
  35,  36,  37,  38,  39,  40,  41,  42,  52,  53,  54,  55,  56,  57,  58,  59
  60,  61,  62,  63,  64,  65,  66,  67,  68,  69,  70,  71,  72,  73,  74,  75
  88,  89,  90,  91,  98,  99, 100, 101, 108, 109, 110, 111, 115, 116, 117, 118
 119, 120, 121, 122, 123, 124, 125, 126, 127, 128, 129, 130, 131, 132, 133, 134
 135, 136, 137, 138, 139, 140, 141, 142, 143, 144, 145, 146, 147, 148, 149, 150
 151, 152, 153, 154, 158, 159, 160, 161, 168, 169, 170, 171, 178, 179, 180, 181
*Elset, elset=_contbase_S4, internal
   3,   6,   9,  12,  66,  69,  72,  75, 230, 231, 232, 233, 234, 235, 236, 237
 238, 239, 240, 241, 242, 243, 244, 245, 246, 247, 248, 249, 250, 251, 252, 253
 254, 255, 256, 257, 258, 259, 260, 261, 262, 263, 264, 265, 266, 267, 268, 269
 270, 271, 272, 273, 274, 275, 276, 277, 278, 279, 280, 281, 282, 283, 284, 285
 286, 287, 288, 289, 380, 381, 382, 383, 384, 385, 386, 387, 388, 389, 390, 391
 392, 393, 394, 395, 396, 397, 398, 399, 400, 401, 402, 403, 404, 405, 406, 407
 408, 409, 410, 411, 412, 413, 414, 415, 416, 417, 418, 419, 420, 421, 422, 423
 424, 425, 426, 427, 428, 429, 430, 431, 432, 433, 434, 435, 436, 437, 438, 439
 530, 531, 532, 533, 534, 535, 536, 537, 538, 539, 540, 541, 542, 543, 544, 545
 546, 547, 548, 549, 550, 551, 552, 553, 554, 555, 556, 557, 558, 559, 560, 561
 562, 563, 564, 565, 566, 567, 568, 569, 570, 571, 572, 573, 574, 575, 576, 577
 578, 579, 580, 581, 582, 583, 584, 585, 586, 587, 588, 589, 707, 708, 709, 710
 711, 712, 713, 714, 715, 716, 717, 718, 719, 720, 721, 722, 723, 724, 725, 726
 727, 728, 729, 730, 731, 732, 733, 734, 735, 736, 737, 738, 739, 740, 741, 742
 743, 744, 745, 746, 747, 748, 749, 750, 751, 752, 753, 754, 755, 756, 757, 758
 759, 760, 761, 762, 763, 764, 765, 766
*Elset, elset=_contbase_S6, internal
  31,  34,  37,  40,  52,  55,  58,  61, 230, 231, 232, 233, 234, 235, 236, 237
 238, 239, 240, 241, 242, 243, 244, 245, 246, 247, 248, 249, 250, 251, 252, 253
 254, 255, 256, 257, 258, 259, 260, 261, 262, 263, 264, 265, 266, 267, 268, 269
 270, 271, 272, 273, 274, 275, 276, 277, 278, 279, 280, 281, 282, 283, 284, 285
 286, 287, 288, 289, 380, 381, 382, 383, 384, 385, 386, 387, 388, 389, 390, 391
 392, 393, 394, 395, 396, 397, 398, 399, 400, 401, 402, 403, 404, 405, 406, 407
 408, 409, 410, 411, 412, 413, 414, 415, 416, 417, 418, 419, 420, 421, 422, 423
 424, 425, 426, 427, 428, 429, 430, 431, 432, 433, 434, 435, 436, 437, 438, 439
 530, 531, 532, 533, 534, 535, 536, 537, 538, 539, 540, 541, 542, 543, 544, 545
 546, 547, 548, 549, 550, 551, 552, 553, 554, 555, 556, 557, 558, 559, 560, 561
 562, 563, 564, 565, 566, 567, 568, 569, 570, 571, 572, 573, 574, 575, 576, 577
 578, 579, 580, 581, 582, 583, 584, 585, 586, 587, 588, 589, 707, 708, 709, 710
 711, 712, 713, 714, 715, 716, 717, 718, 719, 720, 721, 722, 723, 724, 725, 726
 727, 728, 729, 730, 731, 732, 733, 734, 735, 736, 737, 738, 739, 740, 741, 742
 743, 744, 745, 746, 747, 748, 749, 750, 751, 752, 753, 754, 755, 756, 757, 758
 759, 760, 761, 762, 763, 764, 765, 766
*Surface, type=ELEMENT, name=contbase
_contbase_S1, S1
_contbase_S2, S2
_contbase_S4, S4
_contbase_S6, S6
** Section: Section-1
*Solid Section, elset=Set-1, material=Material-1
,
*End Part
**  
*Part, name=Part-2
*Node
      1,          -8.,        -0.75,           0.
      2,          -8.,        -0.75,  0.200000003
      3,          -9.,        -0.75,  0.200000003
      4,          -9.,        -0.75,           0.
      5,          -8.,         0.75,  0.200000003
      6,          -9.,         0.75,  0.200000003
      7,          -9.,         0.75,           0.
      8,          -8.,         0.75,           0.
      9,         0.75,           8.,  0.200000003
     10,         0.75,           8.,           0.
     11,         0.75,           9.,           0.
     12,         0.75,           9.,  0.200000003
     13,        -0.75,           8.,           0.
     14,        -0.75,           9.,           0.
     15,        -0.75,           9.,  0.200000003
     16,        -0.75,           8.,  0.200000003
     17,           8.,         0.75,           0.
     18,           8.,         0.75,  0.200000003
     19,           9.,         0.75,  0.200000003
     20,           9.,         0.75,           0.
** ... 858 like lines cut
*Element, type=C3D8R
1,  50,  54, 380, 377,   1,   2,  41,  42
2, 377, 380,  53,  45,  42,  41,   3,   4
3,  49,  55, 381, 378,  50,  54, 380, 377
4, 378, 381,  52,  46, 377, 380,  53,  45
5,  48,  56, 382, 379,  49,  55, 381, 378
6, 379, 382,  51,  47, 378, 381,  52,  46
7,   8,   5,  43,  44,  48,  56, 382, 379
8,  44,  43,   6,   7, 379, 382,  51,  47
 9,  66,  70, 386, 383,   9,  10,  57,  58
10, 383, 386,  69,  61,  58,  57,  11,  12
11,  65,  71, 387, 384,  66,  70, 386, 383
12, 384, 387,  68,  62, 383, 386,  69,  61
13,  64,  72, 388, 385,  65,  71, 387, 384
14, 385, 388,  67,  63, 384, 387,  68,  62
15,  16,  13,  59,  60,  64,  72, 388, 385
16,  60,  59,  14,  15, 385, 388,  67,  63
17,  82,  86, 392, 389,  17,  18,  73,  74
18, 389, 392,  85,  77,  74,  73,  19,  20
19,  81,  87, 393, 390,  82,  86, 392, 389
20, 390, 393,  84,  78, 389, 392,  85,  77
** ... 330 like lines cut
*Nset, nset=Set-1, generate
   1,  878,    1
*Elset, elset=Set-1, generate
   1,  350,    1
*Nset, nset=strippool, generate
 33,  36,   1
*Elset, elset=_Bondstrip_S6, internal
  1,  2,  3,  4,  5,  6,  7,  8, 17, 18, 19, 20, 21, 22, 23, 24
*Elset, elset=_Bondstrip_S5, internal, generate
 25,  32,   1
*Elset, elset=_Bondstrip_S4, internal, generate
  9,  16,   1
*Surface, type=ELEMENT, name=Bondstrip
_Bondstrip_S6, S6
_Bondstrip_S5, S5
_Bondstrip_S4, S4
*Elset, elset=_contstrip_S1, internal
   7,   8,  15,  16,  23,  24,  33,  34,  35,  36,  37,  38,  39,  40,  41,  42
  43,  44,  45,  46,  47,  48,  49,  50,  51,  52,  53,  54,  55,  56,  57,  58
  59,  60,  61,  62,  63,  64,  65,  66,  67,  68,  69,  70,  71,  72,  73,  74
  75,  76,  77,  78,  79,  80,  81,  82,  83,  84,  85,  86,  87,  88,  89,  90
  91,  92,  93,  94,  95,  96,  97,  98,  99, 100, 101, 102, 103, 104, 105, 106
 107, 108, 109, 110, 111, 112, 113, 114, 115, 116, 117, 118, 119, 120, 121, 122
 123, 124, 125, 126, 127, 128, 129, 130, 131, 132, 133, 134, 135, 136, 137, 138
 139, 140, 141, 142, 143, 144, 145, 146, 147, 148, 149, 150, 151, 152, 153, 154
 155, 156, 157, 158, 159, 160, 161, 162, 163, 164, 165, 166, 167, 168, 169, 170
 171, 172, 173, 174, 175, 176, 177, 178, 179, 180, 181, 182, 183, 184, 185, 186
 187, 188, 189, 190, 191, 192, 193, 194, 195, 196, 197, 198, 199, 200, 201, 202
 203, 204, 205, 206, 207, 208, 209, 210, 211, 212, 213, 214, 215, 216, 217, 218
 219, 220, 221, 222, 223, 224, 225, 226, 227, 228, 229, 230, 231, 232, 233, 234
 235, 236, 237, 238, 239, 240, 241, 242, 243, 244, 245, 246, 247, 248, 249, 250
 251, 252, 253, 254, 255, 256, 257, 258, 259, 260, 261, 262, 263, 264, 265, 266
 267, 268, 269, 270, 271, 272, 273, 274, 275, 276, 277, 278, 279, 280, 281, 282
 283, 284, 285, 286, 287, 288, 289, 290, 291, 292, 293, 294, 295, 296, 297, 298
 299, 300, 301, 302, 303, 304, 305, 306, 307, 308, 309, 310, 311, 312, 313, 314
 315, 316, 317, 318, 319, 320, 321, 322, 323, 324, 325, 326, 327, 328, 329, 330
 331, 332, 333, 334, 335, 336, 337, 338, 339, 340, 341, 342, 343, 344, 345, 346
 347, 348, 349, 350
*Elset, elset=_contstrip_S2, internal
   1,   2,   9,  10,  17,  18,  25,  26,  27,  28,  33,  34,  35,  36,  37,  38
  39,  40,  41,  42,  43,  44,  45,  46,  47,  48,  49,  50,  51,  52,  53,  54
  55,  56,  57,  58,  59,  60,  61,  62,  63,  64,  65,  66,  67,  68,  69,  70
  71,  72,  73,  74,  75,  76,  77,  78,  79,  80,  81,  82,  83,  84,  85,  86
  87,  88,  89,  90,  91,  92,  93,  94,  95,  96,  97,  98,  99, 100, 101, 102
 103, 104, 105, 106, 107, 108, 109, 110, 111, 112, 113, 114, 115, 116, 117, 118
 119, 120, 121, 122, 123, 124, 125, 126, 127, 128, 129, 130, 131, 132, 133, 134
 135, 136, 137, 138, 139, 140, 141, 142, 143, 144, 145, 146, 147, 148, 149, 150
 151, 152, 153, 154, 155, 156, 157, 158, 159, 160, 161, 162, 163, 164, 165, 166
 167, 168, 169, 170, 171, 172, 173, 174, 175, 176, 177, 178, 179, 180, 181, 182
 183, 184, 185, 186, 187, 188, 189, 190, 191, 192, 193, 194, 195, 196, 197, 198
 199, 200, 201, 202, 203, 204, 205, 206, 207, 208, 209, 210, 211, 212, 213, 214
 215, 216, 217, 218, 219, 220, 221, 222, 223, 224, 225, 226, 227, 228, 229, 230
 231, 232, 233, 234, 235, 236, 237, 238, 239, 240, 241, 242, 243, 244, 245, 246
 247, 248, 249, 250, 251, 252, 253, 254, 255, 256, 257, 258, 259, 260, 261, 262
 263, 264, 265, 266, 267, 268, 269, 270, 271, 272, 273, 274, 275, 276, 277, 278
 279, 280, 281, 282, 283, 284, 285, 286, 287, 288, 289, 290, 291, 292, 293, 294
 295, 296, 297, 298, 299, 300, 301, 302, 303, 304, 305, 306, 307, 308, 309, 310
 311, 312, 313, 314, 315, 316, 317, 318, 319, 320, 321, 322, 323, 324, 325, 326
 327, 328, 329, 330, 331, 332, 333, 334, 335, 336, 337, 338, 339, 340, 341, 342
 343, 344, 345, 346, 347, 348, 349, 350
*Elset, elset=_contstrip_S3, internal
  25,  26,  27,  28,  29,  30,  31,  32,  36,  46,  49,  52,  68,  73, 106, 114
 131, 138, 147, 169, 217, 237, 317
*Elset, elset=_contstrip_S4, internal
   1,   2,   3,   4,   5,   6,   7,   8,   9,  10,  11,  12,  13,  14,  15,  16
  17,  18,  19,  20,  21,  22,  23,  24,  28,  32,  34,  48,  54,  63,  64,  75
  77,  81,  83,  90,  91, 102, 107, 112, 119, 141, 143, 149, 156, 160, 187, 188
 189, 190, 191, 197, 205, 206, 207, 208, 209, 210, 211, 239, 240, 241, 242, 245
 249, 256, 257, 258, 264, 267, 269, 272, 288, 289, 291, 320, 322
*Elset, elset=_contstrip_S5, internal
   2,   4,   6,   8,  12,  14,  16,  18,  20,  22,  24,  25,  26,  27,  28,  29
  30,  31,  32,  37,  45,  53,  55,  57,  58,  59,  61,  80,  82,  88,  92, 100
 103, 144, 145, 167, 168, 178, 179, 183, 184, 194, 213, 214, 243, 246, 247, 250
 252, 260, 280, 287, 301, 314, 315
*Elset, elset=_contstrip_S6, internal
   1,   2,   3,   4,   5,   6,   7,   8,   9,  10,  11,  12,  13,  14,  15,  16
  17,  18,  19,  20,  21,  22,  23,  24,  25,  29,  35,  44,  78,  97,  99, 109
 110, 113, 116, 117, 118, 121, 122, 129, 133, 136, 140, 146, 152, 164, 165, 170
 174, 175, 185, 186, 196, 199, 200, 201, 202, 204, 220, 221, 222, 224, 225, 227
 265, 266, 274, 302
*Surface, type=ELEMENT, name=contstrip
_contstrip_S1, S1
_contstrip_S2, S2
_contstrip_S4, S4
_contstrip_S6, S6
_contstrip_S3, S3
_contstrip_S5, S5
** Section: Section-1
*Solid Section, elset=Set-1, material=Material-1
,
*End Part
**  
**
** ASSEMBLY
**
*Assembly, name=Assembly
**  
*Instance, name=Part-1-1, part=Part-1
*End Instance
**  
*Instance, name=Part-2-1, part=Part-2
          0.,           0.,          0.2
*End Instance
**  
*Nset, nset=BC_bottom, instance=Part-1-1, generate
 49,  52,   1
** Constraint: Constraint-1
*Tie, name=Constraint-1, adjust=yes
Part-2-1.Bondstrip, Part-1-1.BondBase
*End Assembly
** 
** MATERIALS
** 
*Material, name=Material-1
*Elastic
50000., 0.3
** 
** INTERACTION PROPERTIES
** 
*Surface Interaction, name=IntProp-1
1.,
*Friction, slip tolerance=0.005
 0.2,
** 
** CONTACT INITIALIZATION DATA
** 
*Contact Initialization Data, name=CInit-1
** 
** BOUNDARY CONDITIONS
** 
** Name: BC-1 Type: Symmetry/Antisymmetry/Encastre
*Boundary
BC_bottom, ENCASTRE
** 
** INTERACTIONS
** 
** Interaction: Int-1
*Contact Pair, interaction=IntProp-1, type=SURFACE TO SURFACE
Part-2-1.Bondstrip, Part-1-1.contbase
** ----------------------------------------------------------------
** 
** STEP: Step-3
** 
*Step, name=Step-3, nlgeom=YES
*Static
1., 1., 1e-05, 1.
** 
** BOUNDARY CONDITIONS
** 
** Name: BC-2 Type: Displacement/Rotation
*Boundary
Part-2-1.strippool, 3, 3, 2.
** 
** OUTPUT REQUESTS
** 
*Restart, write, frequency=0
** 
** FIELD OUTPUT: F-Output-3
** 
*Output, field, variable=PRESELECT
** 
** HISTORY OUTPUT: H-Output-1
** 
*Output, history, variable=PRESELECT
*End Step
