*Heading
** Job name: Job-1 Model name: Model-1
** Generated by: Abaqus/CAE 2020
*Preprint, echo=NO, model=NO, history=NO, contact=NO
**
** PARTS
**
*Part, name=Part-1
*Node
      1,           0.,          -1.,           0.
      2,           0.,          -1.,  0.200000003
      3,          -5.,          -1.,  0.200000003
      4,          -5.,          -1.,           0.
      5,           0.,           1.,  0.200000003
      6,          -5.,           1.,  0.200000003
      7,          -5.,           1.,           0.
      8,           0.,           1.,           0.
      9,         -10.,          -1.,  0.200000003
     10,         -10.,          -1.,           0.
     11,         -10.,           1.,  0.200000003
     12,         -10.,           1.,           0.
     13,           5.,           1.,  0.200000003
     14,           5.,          -1.,  0.200000003
     15,           5.,          -1.,           0.
     16,           5.,           1.,           0.
     17,           0.,          -1.,  0.100000001
     18, -0.200000003,          -1.,  0.200000003
     19, -0.400000006,          -1.,  0.200000003
     20, -0.600000024,          -1.,  0.200000003
** ... 2944 like lines cut
*Element, type=C3D8R
  1,  138,  977, 2173,  449,    1,   17,  401,   66
  2,  977,  150,  713, 2173,   17,    2,   18,  401
  3,  449, 2173, 2174,  450,   66,  401,  402,   65
  4, 2173,  713,  714, 2174,  401,   18,   19,  402
  5,  450, 2174, 2175,  451,   65,  402,  403,   64
  6, 2174,  714,  715, 2175,  402,   19,   20,  403
  7,  451, 2175, 2176,  452,   64,  403,  404,   63
  8, 2175,  715,  716, 2176,  403,   20,   21,  404
  9,  452, 2176, 2177,  453,   63,  404,  405,   62
 10, 2176,  716,  717, 2177,  404,   21,   22,  405
 11,  453, 2177, 2178,  454,   62,  405,  406,   61
 12, 2177,  717,  718, 2178,  405,   22,   23,  406
 13,  454, 2178, 2179,  455,   61,  406,  407,   60
 14, 2178,  718,  719, 2179,  406,   23,   24,  407
 15,  455, 2179, 2180,  456,   60,  407,  408,   59
 16, 2179,  719,  720, 2180,  407,   24,   25,  408
 17,  456, 2180, 2181,  457,   59,  408,  409,   58
 18, 2180,  720,  721, 2181,  408,   25,   26,  409
 19,  457, 2181, 2182,  458,   58,  409,  410,   57
 20, 2181,  721,  722, 2182,  409,   26,   27,  410
** ... 1780 like lines cut
*Nset, nset=U3
    1,    2,    3,    4,    5,    6,    7,    8,    9,   10,   11,   12,   13,   14,   15,   16
   17,   42,   67,   92,  117,  118,  119,  120,  121,  122,  123,  124,  125,  126,  127,  128
  129,  130,  131,  132,  133,  134,  135,  136,  137,  138,  139,  140,  141,  142,  143,  144
  145,  146,  147,  148,  149,  150,  151,  152,  153,  154,  155,  156,  157,  158,  159,  160
  161,  162,  163,  164,  165,  166,  167,  168,  169,  170,  171,  172,  173,  174,  175,  176
  177,  178,  179,  180,  181,  182,  183,  184,  185,  186,  187,  188,  189,  190,  191,  192
  193,  194,  195,  196,  197,  198,  199,  200,  201,  202,  203,  204,  205,  206,  207,  208
  209,  210,  211,  212,  213,  214,  215,  216,  217,  218,  219,  220,  221,  222,  223,  224
  225,  226,  227,  228,  229,  230,  231,  232,  233,  234,  235,  236,  237,  238,  239,  240
  241,  242,  243,  244,  245,  246,  247,  248,  249,  250,  251,  252,  253,  254,  255,  256
  257,  258,  259,  260,  261,  262,  263,  264,  265,  266,  267,  268,  269,  270,  271,  272
  273,  274,  275,  276,  277,  278,  279,  280,  281,  282,  283,  284,  285,  286,  287,  288
  289,  290,  291,  292,  293,  294,  295,  296,  297,  298,  299,  300,  301,  302,  303,  304
  305,  306,  307,  308,  309,  310,  311,  312,  313,  314,  315,  316,  317,  318,  319,  320
  321,  322,  323,  324,  325,  326,  327,  328,  329,  330,  331,  332,  333,  334,  335,  336
  337,  338,  339,  340,  341,  342,  343,  344,  345,  346,  347,  348,  349,  350,  351,  352
  353,  354,  355,  356,  357,  358,  359,  360,  361,  362,  363,  364,  365,  366,  367,  368
  369,  370,  371,  372,  373,  374,  375,  376,  377,  378,  379,  380,  381,  382,  383,  384
  385,  386,  387,  388,  389,  390,  391,  392,  393,  394,  395,  396,  397,  398,  399,  400
  977,  978,  979,  980,  981,  982,  983,  984,  985,  986,  987,  988,  989,  990,  991,  992
** ... 107 like lines cut
*Elset, elset=U3, generate
  601,  1800,     1
*Nset, nset=U4
    1,    2,    3,    4,    5,    6,    7,    8,   17,   18,   19,   20,   21,   22,   23,   24
   25,   26,   27,   28,   29,   30,   31,   32,   33,   34,   35,   36,   37,   38,   39,   40
   41,   42,   43,   44,   45,   46,   47,   48,   49,   50,   51,   52,   53,   54,   55,   56
   57,   58,   59,   60,   61,   62,   63,   64,   65,   66,   67,   68,   69,   70,   71,   72
   73,   74,   75,   76,   77,   78,   79,   80,   81,   82,   83,   84,   85,   86,   87,   88
   89,   90,   91,   92,   93,   94,   95,   96,   97,   98,   99,  100,  101,  102,  103,  104
  105,  106,  107,  108,  109,  110,  111,  112,  113,  114,  115,  116,  117,  118,  119,  120
  121,  122,  123,  124,  125,  126,  127,  128,  129,  130,  131,  132,  133,  134,  135,  136
  137,  138,  139,  140,  141,  142,  143,  144,  145,  146,  147,  148,  149,  150,  151,  152
  153,  154,  155,  156,  157,  158,  159,  160,  401,  402,  403,  404,  405,  406,  407,  408
  409,  410,  411,  412,  413,  414,  415,  416,  417,  418,  419,  420,  421,  422,  423,  424
  425,  426,  427,  428,  429,  430,  431,  432,  433,  434,  435,  436,  437,  438,  439,  440
  441,  442,  443,  444,  445,  446,  447,  448,  449,  450,  451,  452,  453,  454,  455,  456
  457,  458,  459,  460,  461,  462,  463,  464,  465,  466,  467,  468,  469,  470,  471,  472
  473,  474,  475,  476,  477,  478,  479,  480,  481,  482,  483,  484,  485,  486,  487,  488
  489,  490,  491,  492,  493,  494,  495,  496,  497,  498,  499,  500,  501,  502,  503,  504
  505,  506,  507,  508,  509,  510,  511,  512,  513,  514,  515,  516,  517,  518,  519,  520
  521,  522,  523,  524,  525,  526,  527,  528,  529,  530,  531,  532,  533,  534,  535,  536
  537,  538,  539,  540,  541,  542,  543,  544,  545,  546,  547,  548,  549,  550,  551,  552
  553,  554,  555,  556,  557,  558,  559,  560,  561,  562,  563,  564,  565,  566,  567,  568
** ... 44 like lines cut
*Elset, elset=U4, generate
   1,  600,    1
*Nset, nset=Set-11, generate
    1,  2964,     1
*Elset, elset=Set-11, generate
    1,  1800,     1
*Nset, nset=edge
 121, 122, 133, 134, 144, 145, 154, 155, 981, 982, 992, 993
** Section: Section-1
*Solid Section, elset=Set-11, material=Material-1
,
*End Part
**  
**
** ASSEMBLY
**
*Assembly, name=Assembly
**  
*Instance, name=Part-1-1, part=Part-1
*End Instance
**  
*End Assembly
** 
** MATERIALS
** 
*Material, name=Material-1
*Density
0.,
** 
** BOUNDARY CONDITIONS
** 
** Name: BC-1 Type: Symmetry/Antisymmetry/Encastre
*Boundary
Part-1-1.edge, ENCASTRE
