*Heading
** Job name: Job-1 Model name: Model-1
** Generated by: Abaqus/CAE 2020
*Preprint, echo=NO, model=NO, history=NO, contact=NO
**
** PARTS
**
*Part, name=Part-1
*Node
      1,           0.,          1.5,  0.200000003
      2,           0.,          1.5,           0.
      3,          1.5,          1.5,           0.
      4,          1.5,          1.5,  0.200000003
      5,           0.,           3.,           0.
      6,           0.,           3.,  0.200000003
      7,         2.25,         2.25,  0.200000003
      8,          1.5,           3.,  0.200000003
      9,         2.25,         2.25,           0.
     10,          1.5,           3.,           0.
     11,           0.,          -3.,           0.
     12,           0.,         -1.5,           0.
     13,           0.,         -1.5,  0.200000003
     14,           0.,          -3.,  0.200000003
     15,         -1.5,          -3.,           0.
     16,        -2.25,        -2.25,           0.
     17,         -1.5,         -1.5,           0.
     18,         -1.5,          -3.,  0.200000003
     19,         -1.5,         -1.5,  0.200000003
     20,        -2.25,        -2.25,  0.200000003
** ... 8320 like lines cut
*Element, type=C3D8
  1, 1973, 1974, 5686, 5651,  258,  259, 1942, 1941
  2, 1974, 1975, 5687, 5686,  259,  260, 1943, 1942
  3, 1975,  268, 1957, 5687,  260,    1,  261, 1943
  4, 5651, 5686, 5652, 5641, 1941, 1942, 1945, 1944
  5, 5686, 5687, 5653, 5652, 1942, 1943, 1946, 1945
  6, 5687, 1957, 1958, 5653, 1943,  261,  262, 1946
  7, 1976, 1977, 5649, 5640, 1973, 1974, 5686, 5651
  8, 1977, 1978, 5650, 5649, 1974, 1975, 5687, 5686
  9, 1978,  267, 1959, 5650, 1975,  268, 1957, 5687
 10, 5640, 5649, 5638, 5637, 5651, 5686, 5652, 5641
 11, 5649, 5650, 5639, 5638, 5686, 5687, 5653, 5652
 12, 5650, 1959, 1960, 5639, 5687, 1957, 1958, 5653
 13, 1958, 1961, 5688, 5653,  262,  263, 1947, 1946
 14, 1961, 1962, 5689, 5688,  263,  264, 1948, 1947
 15, 1962,  273, 1995, 5689,  264,    2,  269, 1948
 16, 5653, 5688, 5690, 5652, 1946, 1947, 1949, 1945
 17, 5688, 5689, 5691, 5690, 1947, 1948, 1950, 1949
 18, 5689, 1995, 1996, 5691, 1948,  269,  270, 1950
 19, 5652, 5690, 5658, 5641, 1945, 1949, 1951, 1944
 20, 5690, 5691, 5659, 5658, 1949, 1950, 1952, 1951
** ... 6010 like lines cut
*Nset, nset=Set-1, generate
    1,  8340,     1
*Elset, elset=Set-1, generate
    1,  6030,     1
*Nset, nset=edge
  205,  208,  211,  219, 1525, 1581, 1665, 1667, 1726, 1728, 1735, 1883
** Section: Section-1
*Solid Section, elset=Set-1, material=Material-1
,
*End Part
**  
**
** ASSEMBLY
**
*Assembly, name=Assembly
**  
*Instance, name=Part-1-1, part=Part-1
*End Instance
**  
*Nset, nset=Intersect, instance=Part-1-1
    7,    9,   16,   20,   26,   36,   40,   56,   60,   66,   70,  107,  108,  161,  163,  307
  308,  309,  310,  363,  364,  365,  366,  476,  477,  478,  479,  602,  603,  604,  605,  662
  663,  664,  665,  911,  912,  913,  914, 1191, 1192, 1193, 1194
*Nset, nset=U3, instance=Part-1-1
    1,    2,    5,    6,    7,    9,   11,   12,   13,   14,   15,   16,   17,   18,   19,   20
   21,   22,   23,   24,   25,   26,   27,   28,   29,   30,   31,   32,   33,   34,   35,   36
   37,   38,   39,   40,   46,   47,   48,   49,   51,   52,   53,   54,   55,   56,   57,   58
   59,   60,   61,   62,   63,   64,   65,   66,   67,   68,   69,   70,   71,   72,   73,   74
   75,   76,   77,   78,   83,   84,   85,   86,   87,   88,   89,   90,   91,   92,   93,   94
   95,   96,   97,   98,   99,  100,  101,  102,  103,  104,  105,  106,  107,  108,  113,  114
  115,  116,  119,  120,  123,  124,  125,  126,  127,  128,  161,  162,  163,  164,  197,  198
  199,  200,  205,  206,  217,  218,  219,  220,  221,  222,  239,  240,  241,  242,  245,  246
  253,  254,  255,  256,  261,  262,  263,  264,  265,  266,  267,  268,  273,  274,  275,  276
  289,  290,  291,  292,  307,  308,  309,  310,  319,  320,  321,  322,  323,  324,  325,  326
  327,  328,  329,  330,  331,  332,  333,  334,  335,  336,  337,  338,  339,  340,  341,  342
  343,  344,  345,  346,  347,  348,  349,  350,  351,  352,  353,  354,  355,  356,  357,  358
  359,  360,  361,  362,  363,  364,  365,  366,  367,  368,  369,  370,  371,  372,  373,  374
  375,  376,  377,  378,  379,  380,  381,  382,  383,  384,  385,  386,  387,  388,  389,  390
  391,  392,  393,  394,  395,  396,  397,  398,  399,  400,  401,  402,  403,  404,  405,  406
  407,  408,  409,  410,  411,  412,  413,  414,  415,  416,  417,  418,  419,  420,  421,  422
  423,  424,  425,  426,  427,  428,  429,  430,  431,  432,  433,  434,  435,  436,  437,  438
  439,  440,  441,  442,  443,  444,  445,  446,  447,  448,  449,  450,  451,  452,  453,  454
  455,  456,  457,  458,  459,  460,  461,  462,  463,  464,  465,  466,  467,  468,  469,  470
  471,  472,  473,  474,  475,  476,  477,  478,  479,  480,  481,  482,  483,  484,  485,  486
** ... 198 like lines cut
*Elset, elset=U3, instance=Part-1-1
  171,  172,  173,  174,  175,  176,  177,  178,  179,  180,  181,  182,  183,  184,  185,  186
  187,  188,  189,  190,  191,  192,  193,  194,  195,  196,  197,  198,  199,  200,  201,  202
  203,  204,  205,  206,  207,  208,  209,  210,  211,  212,  213,  214,  215,  216,  217,  218
  219,  220,  221,  222,  223,  224,  225,  226,  227,  228,  229,  230,  231,  232,  233,  234
  235,  236,  237,  238,  239,  240,  241,  242,  243,  244,  245,  246,  247,  248,  249,  250
  251,  252,  253,  254,  255,  256,  257,  258,  259,  260,  261,  262,  263,  264,  265,  266
  267,  268,  269,  270,  271,  272,  273,  274,  275,  276,  277,  278,  279,  280,  281,  282
  283,  284,  285,  286,  287,  288,  289,  290,  291,  292,  293,  294,  295,  296,  297,  298
  299,  300,  301,  302,  303,  304,  305,  306,  307,  308,  309,  310,  311,  312,  313,  314
  315,  316,  317,  318,  319,  320,  321,  322,  323,  324,  325,  326,  327,  328,  329,  330
  331,  332,  333,  334,  335,  336,  337,  338,  339,  340,  341,  342,  343,  344,  345,  346
  347,  348,  349,  350,  351,  352,  353,  354,  355,  356,  357,  358,  359,  360,  361,  362
  363,  364,  365,  366,  367,  368,  369,  370,  371,  372,  373,  374,  375,  376,  377,  378
  379,  380,  381,  382,  383,  384,  385,  386,  387,  388,  389,  390,  391,  392,  393,  394
  395,  396,  397,  398,  399,  400,  401,  402,  403,  404,  405,  406,  407,  408,  409,  410
  411,  412,  413,  414,  415,  416,  417,  418,  419,  420,  421,  422,  423,  424,  425,  426
  427,  428,  429,  430,  431,  432,  433,  434,  435,  436,  437,  438,  439,  440,  441,  442
  443,  444,  445,  446,  447,  448,  449,  450,  451,  452,  453,  454,  455,  456,  457,  458
  459,  460,  461,  462,  463,  464,  465,  466,  467,  468,  469,  470,  471,  472,  473,  474
  475,  476,  477,  478,  479,  480,  481,  482,  483,  484,  485,  486,  487,  488,  489,  490
** ... 108 like lines cut
*Nset, nset=U4, instance=Part-1-1
    7,    8,    9,   10,   16,   17,   19,   20,   35,   36,   37,   38,   39,   40,   41,   44
   45,   50,   55,   56,   58,   60,   73,   74,   92,   93,   95,   96,  102,  103,  105,  106
  107,  108,  109,  110,  117,  118,  119,  120,  121,  122,  123,  124,  125,  126,  127,  128
  129,  130,  131,  132,  135,  136,  137,  138,  139,  140,  141,  142,  143,  144,  145,  146
  147,  148,  149,  150,  151,  152,  153,  154,  155,  156,  157,  158,  159,  160,  161,  162
  163,  164,  165,  166,  167,  168,  169,  170,  171,  172,  173,  174,  175,  176,  177,  178
  179,  180,  181,  182,  183,  184,  185,  186,  187,  188,  189,  190,  191,  192,  193,  194
  195,  196,  201,  202,  203,  204,  205,  206,  207,  208,  231,  232,  235,  236,  239,  240
  245,  246,  251,  252,  303,  304,  305,  306,  307,  308,  309,  310,  311,  312,  313,  314
  315,  316,  317,  318,  360,  361,  362,  363,  364,  365,  366,  367,  368,  369,  370,  374
  375,  376,  463,  464,  465,  466,  467,  468,  469,  470,  471,  472,  473,  474,  475,  476
  477,  478,  479,  480,  481,  482,  483,  484,  485,  486,  487,  488,  489,  490,  491,  492
  493,  494,  495,  496,  501,  502,  503,  504,  521,  522,  523,  524,  529,  530,  531,  532
  587,  588,  589,  590,  591,  592,  593,  594,  595,  596,  602,  603,  604,  605,  610,  611
  612,  613,  614,  615,  695,  696,  697,  698,  699,  700,  701,  702,  703,  704,  705,  706
  823,  824,  825,  826,  827,  828,  829,  830,  831,  832,  833,  834,  835,  840,  841,  842
  843,  844,  886,  887,  888,  889,  890,  891,  892,  893,  894,  895,  896,  897,  903,  904
  905,  906,  907,  908,  909,  910,  911,  912,  913,  914,  919,  920,  921,  922,  927,  928
  929,  930,  969,  970,  971,  972,  973,  974,  975,  976,  977,  978,  979,  980,  981,  982
  983,  984,  985,  986,  987,  988,  989,  990,  991,  992,  993,  994,  995,  996,  997,  998
** ... 116 like lines cut
*Elset, elset=U4, instance=Part-1-1
 1936, 1937, 1938, 1939, 1940, 1941, 1942, 1943, 1944, 1945, 1946, 1947, 1948, 1949, 1950, 1951
 1952, 1953, 1954, 1955, 1956, 1957, 1958, 1959, 1960, 1961, 1962, 1963, 1964, 1965, 1966, 1967
 1968, 1969, 1970, 1971, 1972, 1973, 1974, 1975, 1976, 1977, 1978, 1979, 1980, 1981, 1982, 1983
 1984, 1985, 1986, 1987, 1988, 1989, 1990, 1991, 1992, 1993, 1994, 1995, 1996, 1997, 1998, 1999
 2000, 2001, 2002, 2003, 2004, 2005, 2006, 2007, 2008, 2009, 2010, 2011, 2012, 2013, 2014, 2015
 2016, 2017, 2018, 2019, 2020, 2021, 2022, 2023, 2024, 2025, 2026, 2027, 2028, 2029, 2030, 2031
 2032, 2033, 2034, 2035, 2036, 2037, 2038, 2039, 2040, 2041, 2042, 2043, 2044, 2045, 2046, 2047
 2048, 2049, 2050, 2051, 2052, 2053, 2054, 2055, 2056, 2057, 2058, 2059, 2060, 2061, 2062, 2063
 2064, 2065, 2066, 2067, 2068, 2069, 2070, 2071, 2072, 2073, 2074, 2075, 2076, 2077, 2078, 2079
 2080, 2081, 2082, 2083, 2084, 2085, 2086, 2087, 2088, 2089, 2090, 2091, 2092, 2093, 2094, 2095
 2096, 2097, 2098, 2099, 2100, 2101, 2102, 2103, 2104, 2105, 2171, 2172, 2173, 2174, 2175, 2176
 2177, 2178, 2179, 2180, 2181, 2182, 2183, 2184, 2185, 2186, 2187, 2188, 2189, 2190, 2191, 2192
 2193, 2194, 2195, 2196, 2197, 2198, 2199, 2200, 2201, 2202, 2203, 2204, 2205, 2206, 2207, 2208
 2209, 2210, 2211, 2212, 2213, 2214, 2215, 2216, 2217, 2218, 2219, 2220, 2221, 2222, 2223, 2224
 2225, 2226, 2227, 2228, 2229, 2230, 2231, 2232, 2233, 2234, 2235, 2236, 2237, 2238, 2239, 2240
 2241, 2242, 2243, 2244, 2245, 2246, 2247, 2248, 2249, 2250, 2251, 2252, 2253, 2254, 2255, 2256
 2257, 2258, 2259, 2260, 2261, 2262, 2263, 2264, 2265, 2266, 2267, 2268, 2269, 2270, 2271, 2272
 2273, 2274, 2275, 2276, 2277, 2278, 2279, 2280, 2281, 2282, 2283, 2284, 2285, 2286, 2287, 2288
 2289, 2290, 2291, 2292, 2293, 2294, 2295, 2296, 2297, 2298, 2299, 2300, 2301, 2302, 2303, 2304
 2305, 2306, 2307, 2308, 2309, 2310, 2311, 2312, 2313, 2314, 2315, 2316, 2317, 2318, 2319, 2320
** ... 48 like lines cut
*Nset, nset=U5, instance=Part-1-1
    1,    2,    3,    4,    5,    6,    7,    8,    9,   10,   11,   12,   13,   14,   16,   20
   21,   22,   23,   24,   26,   30,   31,   32,   33,   34,   36,   40,   41,   42,   43,   44
   45,   46,   47,   48,   49,   50,   51,   52,   53,   54,   56,   60,   61,   62,   63,   64
   66,   70,   71,   72,   75,   76,   79,   80,   81,   82,   83,   84,   85,   86,   87,   88
   89,   90,   97,   98,   99,  100,  107,  108,  109,  110,  111,  112,  113,  114,  115,  116
  133,  134,  143,  144,  145,  146,  147,  148,  157,  158,  161,  163,  175,  176,  181,  182
  183,  184,  185,  186,  187,  192,  207,  208,  209,  210,  211,  212,  213,  214,  225,  226
  227,  228,  229,  230,  231,  232,  233,  234,  235,  236,  237,  238,  243,  244,  247,  248
  249,  250,  251,  252,  257,  258,  259,  260,  261,  262,  263,  264,  265,  266,  267,  268
  269,  270,  271,  272,  273,  274,  275,  276,  277,  278,  279,  280,  281,  282,  283,  284
  285,  286,  287,  288,  289,  290,  291,  292,  293,  294,  295,  296,  297,  298,  299,  300
  301,  302,  303,  304,  305,  306,  307,  308,  309,  310,  311,  312,  313,  314,  315,  316
  317,  318,  319,  320,  321,  322,  323,  324,  325,  326,  332,  333,  334,  335,  340,  341
  342,  343,  363,  364,  365,  366,  377,  378,  379,  380,  381,  382,  383,  384,  389,  390
  391,  392,  397,  398,  399,  400,  418,  419,  420,  421,  431,  432,  433,  434,  435,  436
  437,  438,  443,  444,  445,  446,  451,  452,  453,  454,  476,  477,  478,  479,  493,  494
  495,  496,  497,  498,  499,  500,  501,  502,  503,  504,  505,  506,  507,  508,  509,  510
  511,  512,  513,  514,  515,  516,  517,  518,  519,  520,  521,  522,  523,  524,  525,  526
  527,  528,  529,  530,  531,  532,  533,  534,  535,  536,  537,  538,  539,  540,  541,  542
  543,  544,  545,  546,  547,  548,  549,  550,  551,  552,  553,  554,  555,  556,  557,  558
** ... 193 like lines cut
*Elset, elset=U5, instance=Part-1-1
    1,    2,    3,    4,    5,    6,    7,    8,    9,   10,   11,   12,   13,   14,   15,   16
   17,   18,   19,   20,   21,   22,   23,   24,   25,   26,   27,   28,   29,   30,   31,   32
   33,   34,   35,   36,   37,   38,   39,   40,   41,   42,   43,   44,   45,   46,   47,   48
   49,   50,   51,   52,   53,   54,   55,   56,   57,   58,   59,   60,   61,   62,   63,   64
   65,   66,   67,   68,   69,   70,   71,   72,   73,   74,   75,   76,   77,   78,   79,   80
   81,   82,   83,   84,   85,   86,   87,   88,   89,   90,   91,   92,   93,   94,   95,   96
   97,   98,   99,  100,  101,  102,  103,  104,  105,  106,  107,  108,  109,  110,  111,  112
  113,  114,  115,  116,  117,  118,  119,  120,  121,  122,  123,  124,  125,  126,  127,  128
  129,  130,  131,  132,  133,  134,  135,  136,  137,  138,  139,  140,  141,  142,  143,  144
  145,  146,  147,  148,  149,  150,  151,  152,  153,  154,  155,  156,  157,  158,  159,  160
  161,  162,  163,  164,  165,  166,  167,  168,  169,  170,  621,  622,  623,  624,  625,  626
  627,  628,  629,  630,  631,  632,  633,  634,  635,  636,  637,  638,  639,  640,  641,  642
  643,  644,  645,  646,  647,  648,  649,  650,  651,  652,  653,  654,  655,  656,  657,  658
  659,  660,  661,  662,  663,  664,  665,  666,  667,  668,  669,  670,  671,  672,  673,  674
  675,  676,  677,  678,  679,  680,  681,  682,  683,  684,  685,  686,  687,  688,  689,  690
  691,  692,  693,  694,  695,  696,  697,  698,  699,  700,  701,  702,  703,  704,  705,  706
  707,  708,  709,  710,  711,  712,  713,  714,  715,  716,  717,  718,  719,  720,  721,  722
  723,  724,  725,  726,  727,  728,  729,  730,  731,  732,  733,  734,  735,  736,  737,  738
  739,  740,  741,  742,  743,  744,  745,  746,  747,  748,  749,  750,  751,  752,  753,  754
  755,  756,  757,  758,  759,  760,  761,  762,  763,  764,  765,  766,  767,  768,  769,  770
** ... 105 like lines cut
*Nset, nset=U6, instance=Part-1-1
    3,    4,    7,    9,   15,   16,   18,   20,   25,   26,   27,   28,   29,   30,   56,   57
   59,   60,   65,   66,   67,   68,   69,   70,   77,   78,   79,   80,   81,   82,  101,  102
  104,  106,  107,  108,  111,  112,  117,  118,  121,  122,  124,  126,  129,  130,  131,  132
  133,  134,  135,  136,  137,  138,  139,  140,  141,  142,  144,  148,  151,  152,  153,  154
  155,  156,  159,  160,  167,  168,  169,  170,  171,  172,  173,  174,  177,  178,  179,  180
  184,  185,  188,  189,  190,  191,  193,  194,  195,  196,  197,  198,  199,  200,  201,  202
  203,  204,  209,  211,  213,  214,  215,  216,  218,  219,  220,  222,  223,  224,  225,  226
  227,  228,  229,  230,  233,  234,  237,  238,  241,  242,  243,  244,  247,  248,  249,  250
  253,  254,  255,  256,  277,  278,  279,  280,  281,  282,  283,  284,  285,  286,  287,  288
  307,  308,  309,  310,  353,  354,  355,  356,  357,  358,  359,  363,  364,  365,  366,  371
  372,  373,  409,  410,  411,  412,  413,  414,  415,  416,  417,  418,  419,  420,  421,  422
  423,  424,  425,  426,  427,  428,  429,  430,  597,  598,  599,  600,  601,  602,  603,  604
  605,  606,  607,  608,  609,  616,  617,  618,  619,  620,  653,  654,  655,  656,  657,  658
  659,  660,  661,  662,  663,  664,  665,  666,  667,  668,  669,  670,  671,  672,  673,  674
  721,  722,  723,  724,  725,  726,  727,  728,  729,  730,  731,  732,  733,  734,  735,  736
  737,  738,  739,  740,  741,  742,  743,  744,  745,  746,  755,  756,  757,  758,  877,  878
  879,  880,  881,  882,  883,  884,  885,  890,  891,  892,  893,  898,  899,  900,  901,  902
  911,  912,  913,  914,  915,  916,  917,  918,  923,  924,  925,  926,  939,  940,  941,  942
  970,  971,  972,  973,  974,  975,  976,  977,  979,  980,  981,  982,  989,  990,  991,  992
 1003, 1004, 1005, 1006, 1031, 1032, 1033, 1034, 1035, 1036, 1037, 1038, 1039, 1040, 1041, 1042
** ... 99 like lines cut
*Elset, elset=U6, instance=Part-1-1
 2106, 2107, 2108, 2109, 2110, 2111, 2112, 2113, 2114, 2115, 2116, 2117, 2118, 2119, 2120, 2121
 2122, 2123, 2124, 2125, 2126, 2127, 2128, 2129, 2130, 2131, 2132, 2133, 2134, 2135, 2136, 2137
 2138, 2139, 2140, 2141, 2142, 2143, 2144, 2145, 2146, 2147, 2148, 2149, 2150, 2151, 2152, 2153
 2154, 2155, 2156, 2157, 2158, 2159, 2160, 2161, 2162, 2163, 2164, 2165, 2166, 2167, 2168, 2169
 2170, 2681, 2682, 2683, 2684, 2685, 2686, 2687, 2688, 2689, 2690, 2691, 2692, 2693, 2694, 2695
 2696, 2697, 2698, 2699, 2700, 2701, 2702, 2703, 2704, 2705, 2706, 2707, 2708, 2709, 2710, 2711
 2712, 2713, 2714, 2715, 2716, 2717, 2718, 2719, 2720, 2721, 2722, 2723, 2724, 2725, 2726, 2727
 2728, 2729, 2730, 2731, 2732, 2733, 2734, 2735, 2736, 2737, 2738, 2739, 2740, 2741, 2742, 2743
 2744, 2745, 2746, 2747, 2748, 2749, 2750, 2751, 2752, 2753, 2754, 2755, 2756, 2757, 2758, 2759
 2760, 2761, 2762, 2763, 2764, 2765, 2766, 2767, 2768, 2769, 2770, 2771, 2772, 2773, 2774, 2775
 2776, 2777, 2778, 2779, 2780, 2781, 2782, 2783, 2784, 2785, 2786, 2787, 2788, 2789, 2790, 2791
 2792, 2793, 2794, 2795, 2796, 2797, 2798, 2799, 2800, 2801, 2802, 2803, 2804, 2805, 2806, 2807
 2808, 2809, 2810, 2811, 2812, 2813, 2814, 2815, 2816, 2817, 2818, 2819, 2820, 3006, 3007, 3008
 3009, 3010, 3011, 3012, 3013, 3014, 3015, 3016, 3017, 3018, 3019, 3020, 3021, 3022, 3023, 3024
 3025, 3026, 3027, 3028, 3029, 3030, 3056, 3057, 3058, 3059, 3060, 3061, 3062, 3063, 3064, 3065
 3066, 3067, 3068, 3069, 3070, 3071, 3072, 3073, 3074, 3075, 3076, 3077, 3078, 3079, 3080, 3266
 3267, 3268, 3269, 3270, 3271, 3272, 3273, 3274, 3275, 3276, 3277, 3278, 3279, 3280, 3281, 3282
 3283, 3284, 3285, 3286, 3287, 3288, 3289, 3290, 3291, 3292, 3293, 3294, 3295, 3296, 3297, 3298
 3299, 3300, 3301, 3302, 3303, 3304, 3305, 3306, 3307, 3308, 3309, 3310, 3311, 3312, 3313, 3314
 3315, 3316, 3317, 3318, 3319, 3320, 3376, 3377, 3378, 3379, 3380, 3381, 3382, 3383, 3384, 3385
** ... 37 like lines cut
*End Assembly
** 
** MATERIALS
** 
*Material, name=Material-1
*Density
2.,
